<?xml version="1.0" encoding="UTF-8"?>

<!-- generated on 01/28/21 19:03:10 by Eclipse SUMO netedit Version 1.5.0
<configuration xmlns:xsi="http://www.w3.org/2001/XMLSchema-instance" xsi:noNamespaceSchemaLocation="http://sumo.dlr.de/xsd/netconvertConfiguration.xsd">

    <input>
        <sumo-net-file value="allofthem.net.xml"/>
    </input>

    <output>
        <output-file value="allofthem.net.xml"/>
    </output>

    <processing>
        <geometry.min-radius.fix.railways value="false"/>
        <geometry.max-grade.fix value="false"/>
        <offset.disable-normalization value="true"/>
        <lefthand value="false"/>
    </processing>

    <junctions>
        <no-turnarounds value="true"/>
        <junctions.corner-detail value="5"/>
        <junctions.limit-turn-speed value="5.5"/>
        <rectangular-lane-cut value="true"/>
    </junctions>

    <pedestrian>
        <walkingareas value="false"/>
    </pedestrian>

    <report>
        <aggregate-warnings value="5"/>
    </report>

</configuration>
-->

<net version="1.3" junctionCornerDetail="5" rectangularLaneCut="true" limitTurnSpeed="5.50" xmlns:xsi="http://www.w3.org/2001/XMLSchema-instance" xsi:noNamespaceSchemaLocation="http://sumo.dlr.de/xsd/net_file.xsd">

    <location netOffset="885.98,786.59" convBoundary="0.00,0.00,1660.25,1540.86" origBoundary="-885.98,-786.59,774.27,754.27" projParameter="!"/>

    <type id="bidirectional" priority="1" speed="1.39" disallow="pedestrian tram rail_urban rail rail_electric rail_fast ship" width="3.65"/>
    <type id="border" priority="0" speed="1.39" disallow="all" discard="1" width="0.10"/>
    <type id="driving" priority="1" speed="13.89" disallow="pedestrian tram rail_urban rail rail_electric rail_fast ship" width="3.65"/>
    <type id="entry" priority="1" speed="22.22" disallow="pedestrian tram rail_urban rail rail_electric rail_fast ship" width="3.65"/>
    <type id="exit" priority="1" speed="22.22" disallow="pedestrian tram rail_urban rail rail_electric rail_fast ship" width="3.65"/>
    <type id="median" priority="0" speed="1.39" disallow="all" discard="1" width="0.10"/>
    <type id="mwyEntry" priority="1" speed="22.22" allow="private emergency authority army vip passenger hov taxi bus coach delivery truck trailer motorcycle evehicle custom1 custom2" width="3.65"/>
    <type id="mwyExit" priority="1" speed="22.22" allow="private emergency authority army vip passenger hov taxi bus coach delivery truck trailer motorcycle evehicle custom1 custom2" width="3.65"/>
    <type id="none" priority="0" speed="1.39" disallow="all" discard="1" width="1.00"/>
    <type id="offRamp" priority="1" speed="22.22" allow="private emergency authority army vip passenger hov taxi bus coach delivery truck trailer motorcycle evehicle custom1 custom2" width="3.65"/>
    <type id="onRamp" priority="1" speed="22.22" allow="private emergency authority army vip passenger hov taxi bus coach delivery truck trailer motorcycle evehicle custom1 custom2" width="3.65"/>
    <type id="parking" priority="1" speed="1.39" disallow="pedestrian tram rail_urban rail rail_electric rail_fast ship" width="2.50"/>
    <type id="rail" priority="3" speed="33.33" allow="rail_urban rail rail_electric rail_fast" width="3.65"/>
    <type id="restricted" priority="0" speed="13.89" disallow="all" width="3.65"/>
    <type id="roadWorks" priority="0" speed="1.39" allow="authority" width="3.65"/>
    <type id="shoulder" priority="0" speed="1.39" disallow="all" discard="1" width="1.00"/>
    <type id="special1" priority="1" speed="22.22" allow="custom1" discard="1" width="3.65"/>
    <type id="special2" priority="1" speed="22.22" allow="custom2" discard="1" width="3.65"/>
    <type id="special3" priority="1" speed="22.22" allow="custom1 custom2" discard="1" width="3.65"/>
    <type id="stop" priority="1" speed="13.89" disallow="pedestrian tram rail_urban rail rail_electric rail_fast ship" width="3.65"/>
    <type id="tram" priority="2" speed="13.89" allow="tram" width="3.65"/>

    <edge id=":1_0" function="internal">
        <lane id=":1_0_0" index="0" disallow="pedestrian tram rail_urban rail rail_electric rail_fast ship" speed="17.88" length="22.00" width="3.50" shape="1087.23,1187.32 1087.23,1165.32"/>
        <lane id=":1_0_1" index="1" disallow="pedestrian tram rail_urban rail rail_electric rail_fast ship" speed="17.88" length="22.00" width="3.50" shape="1090.73,1187.32 1090.73,1165.32"/>
        <lane id=":1_0_2" index="2" disallow="pedestrian tram rail_urban rail rail_electric rail_fast ship" speed="17.88" length="22.00" width="3.50" shape="1094.23,1187.32 1094.23,1165.32"/>
    </edge>
    <edge id=":1_3" function="internal">
        <lane id=":1_3_0" index="0" disallow="pedestrian tram rail_urban rail rail_electric rail_fast ship" speed="10.17" length="6.88" width="3.50" shape="1094.23,1187.32 1095.25,1181.74 1095.98,1180.78"/>
    </edge>
    <edge id=":1_10" function="internal">
        <lane id=":1_10_0" index="0" disallow="pedestrian tram rail_urban rail rail_electric rail_fast ship" speed="10.17" length="16.57" width="3.50" shape="1095.98,1180.78 1098.29,1177.76 1103.37,1175.37 1110.48,1174.57"/>
    </edge>
    <edge id=":1_4" function="internal">
        <lane id=":1_4_0" index="0" disallow="pedestrian tram rail_urban rail rail_electric rail_fast ship" speed="6.62" length="9.27" width="3.50" shape="1110.48,1181.57 1107.96,1181.93 1106.17,1183.01 1105.09,1184.80 1104.73,1187.32"/>
    </edge>
    <edge id=":1_5" function="internal">
        <lane id=":1_5_0" index="0" disallow="pedestrian tram rail_urban rail rail_electric rail_fast ship" speed="10.17" length="23.45" width="3.50" shape="1110.48,1178.07 1103.37,1177.27 1098.29,1174.88 1095.25,1170.90 1094.23,1165.32"/>
    </edge>
    <edge id=":1_6" function="internal">
        <lane id=":1_6_0" index="0" disallow="pedestrian tram rail_urban rail rail_electric rail_fast ship" speed="6.62" length="9.27" width="3.50" shape="1104.73,1165.32 1105.09,1167.84 1106.17,1169.63 1107.96,1170.71 1110.48,1171.07"/>
    </edge>
    <edge id=":1_7" function="internal">
        <lane id=":1_7_0" index="0" disallow="pedestrian tram rail_urban rail rail_electric rail_fast ship" speed="17.88" length="22.00" width="3.50" shape="1104.73,1165.32 1104.73,1187.32"/>
        <lane id=":1_7_1" index="1" disallow="pedestrian tram rail_urban rail rail_electric rail_fast ship" speed="17.88" length="22.00" width="3.50" shape="1101.23,1165.32 1101.23,1187.32"/>
        <lane id=":1_7_2" index="2" disallow="pedestrian tram rail_urban rail rail_electric rail_fast ship" speed="17.88" length="22.00" width="3.50" shape="1097.73,1165.32 1097.73,1187.32"/>
    </edge>
    <edge id=":10_0" function="internal">
        <lane id=":10_0_0" index="0" disallow="pedestrian tram rail_urban rail rail_electric rail_fast ship" speed="6.70" length="9.48" width="3.50" shape="989.96,825.93 988.24,823.86 986.32,822.80 984.21,822.76 981.91,823.73"/>
    </edge>
    <edge id=":10_1" function="internal">
        <lane id=":10_1_0" index="0" disallow="pedestrian tram rail_urban rail rail_electric rail_fast ship" speed="8.81" length="18.34" width="3.50" shape="989.96,825.93 987.43,820.75 986.88,816.39 988.32,812.85 991.73,810.13"/>
    </edge>
    <edge id=":10_2" function="internal">
        <lane id=":10_2_0" index="0" disallow="pedestrian tram rail_urban rail rail_electric rail_fast ship" speed="6.46" length="9.30" width="3.50" shape="994.99,816.32 992.90,817.84 991.86,819.63 991.87,821.70 992.92,824.06"/>
    </edge>
    <edge id=":10_3" function="internal">
        <lane id=":10_3_0" index="0" disallow="pedestrian tram rail_urban rail rail_electric rail_fast ship" speed="17.88" length="15.15" width="3.50" shape="994.99,816.32 981.91,823.73"/>
        <lane id=":10_3_1" index="1" disallow="pedestrian tram rail_urban rail rail_electric rail_fast ship" speed="17.88" length="15.15" width="3.50" shape="993.36,813.23 980.07,820.76"/>
    </edge>
    <edge id=":10_5" function="internal">
        <lane id=":10_5_0" index="0" disallow="pedestrian tram rail_urban rail rail_electric rail_fast ship" speed="17.88" length="15.64" width="3.50" shape="976.40,814.80 990.11,807.03"/>
        <lane id=":10_5_1" index="1" disallow="pedestrian tram rail_urban rail rail_electric rail_fast ship" speed="17.88" length="15.64" width="3.50" shape="978.23,817.78 991.73,810.13"/>
    </edge>
    <edge id=":10_7" function="internal">
        <lane id=":10_7_0" index="0" disallow="pedestrian tram rail_urban rail rail_electric rail_fast ship" speed="9.00" length="5.80" width="3.50" shape="978.23,817.78 982.05,816.38 983.77,816.65"/>
    </edge>
    <edge id=":10_8" function="internal">
        <lane id=":10_8_0" index="0" disallow="pedestrian tram rail_urban rail rail_electric rail_fast ship" speed="9.00" length="12.21" width="3.50" shape="983.77,816.65 985.77,816.96 989.39,819.52 992.92,824.06"/>
    </edge>
    <edge id=":1012_0" function="internal">
        <lane id=":1012_0_0" index="0" disallow="pedestrian tram rail_urban rail rail_electric rail_fast ship" speed="13.89" length="26.67" width="3.50" shape="1266.13,807.94 1265.04,801.21 1263.55,796.68 1260.84,792.74 1256.12,787.84"/>
        <lane id=":1012_0_1" index="1" disallow="pedestrian tram rail_urban rail rail_electric rail_fast ship" speed="13.89" length="26.67" width="3.50" shape="1269.60,807.47 1268.40,800.07 1266.76,795.07 1263.77,790.74 1258.57,785.35"/>
        <lane id=":1012_0_2" index="2" disallow="pedestrian tram rail_urban rail rail_electric rail_fast ship" speed="13.89" length="26.67" width="3.50" shape="1273.06,806.99 1271.77,798.92 1269.96,793.46 1266.71,788.74 1261.03,782.86"/>
        <lane id=":1012_0_3" index="3" disallow="pedestrian tram rail_urban rail rail_electric rail_fast ship" speed="13.89" length="26.67" width="3.50" shape="1276.53,806.52 1275.13,797.77 1273.17,791.86 1269.64,786.74 1263.49,780.36"/>
    </edge>
    <edge id=":1012_4" function="internal">
        <lane id=":1012_4_0" index="0" disallow="pedestrian tram rail_urban rail rail_electric rail_fast ship" speed="13.89" length="43.57" width="3.50" shape="1287.42,761.13 1288.21,769.30 1288.53,779.15 1289.04,790.86 1290.40,804.63"/>
        <lane id=":1012_4_1" index="1" disallow="pedestrian tram rail_urban rail rail_electric rail_fast ship" speed="13.89" length="43.57" width="3.50" shape="1283.97,761.71 1284.75,769.86 1285.07,779.67 1285.57,791.35 1286.94,805.11"/>
    </edge>
    <edge id=":1012_6" function="internal">
        <lane id=":1012_6_0" index="0" disallow="pedestrian tram rail_urban rail rail_electric rail_fast ship" speed="13.89" length="36.00" width="3.50" shape="1273.32,770.39 1281.38,778.74 1286.01,785.43 1288.57,793.17 1290.40,804.63"/>
        <lane id=":1012_6_1" index="1" disallow="pedestrian tram rail_urban rail rail_electric rail_fast ship" speed="13.89" length="36.00" width="3.50" shape="1270.86,772.88 1278.44,780.74 1282.80,787.04 1285.21,794.32 1286.94,805.11"/>
        <lane id=":1012_6_2" index="2" disallow="pedestrian tram rail_urban rail rail_electric rail_fast ship" speed="13.89" length="36.00" width="3.50" shape="1268.40,775.38 1275.51,782.74 1279.59,788.65 1281.85,795.47 1283.47,805.58"/>
        <lane id=":1012_6_3" index="3" disallow="pedestrian tram rail_urban rail rail_electric rail_fast ship" speed="13.89" length="36.00" width="3.50" shape="1265.95,777.87 1272.57,784.74 1276.38,790.25 1278.49,796.62 1280.00,806.05"/>
    </edge>
    <edge id=":106_0" function="internal">
        <lane id=":106_0_0" index="0" disallow="pedestrian tram rail_urban rail rail_electric rail_fast ship" speed="7.25" length="11.20" width="3.50" shape="1087.97,1104.41,0.02 1087.46,1101.49,0.02 1086.07,1099.41,0.02 1083.81,1098.17,0.03 1080.67,1097.76,0.03"/>
    </edge>
    <edge id=":106_1" function="internal">
        <lane id=":106_1_0" index="0" disallow="pedestrian tram rail_urban rail rail_electric rail_fast ship" speed="13.89" length="18.97" width="3.50" shape="1087.97,1104.41,0.02 1087.53,1085.45,0.02"/>
    </edge>
    <edge id=":106_2" function="internal">
        <lane id=":106_2_0" index="0" disallow="pedestrian tram rail_urban rail rail_electric rail_fast ship" speed="13.89" length="18.96" width="3.50" shape="1091.03,1085.37,0.02 1091.47,1104.33,0.02"/>
    </edge>
    <edge id=":106_3" function="internal">
        <lane id=":106_3_0" index="0" disallow="pedestrian tram rail_urban rail rail_electric rail_fast ship" speed="9.02" length="18.45" width="3.50" shape="1091.03,1085.37,0.02 1090.48,1090.78,0.02 1088.57,1094.65,0.03 1085.30,1096.98,0.03 1080.67,1097.76,0.03"/>
    </edge>
    <edge id=":106_4" function="internal">
        <lane id=":106_4_0" index="0" disallow="pedestrian tram rail_urban rail rail_electric rail_fast ship" speed="7.59" length="12.74" width="3.50" shape="1080.67,1094.26,0.03 1083.74,1093.70,0.03 1085.90,1092.05,0.03 1087.17,1089.30,0.02 1087.53,1085.45,0.02"/>
    </edge>
    <edge id=":106_5" function="internal">
        <lane id=":106_5_0" index="0" disallow="pedestrian tram rail_urban rail rail_electric rail_fast ship" speed="8.74" length="16.76" width="3.50" shape="1080.67,1094.26,0.03 1085.31,1094.88,0.03 1088.65,1096.76,0.02 1090.71,1099.91,0.02 1091.47,1104.33,0.02"/>
    </edge>
    <edge id=":11_0" function="internal">
        <lane id=":11_0_0" index="0" disallow="pedestrian tram rail_urban rail rail_electric rail_fast ship" speed="6.56" length="9.30" width="3.50" shape="1094.23,797.58 1093.87,795.04 1092.78,793.25 1090.97,792.22 1088.43,791.93"/>
    </edge>
    <edge id=":11_1" function="internal">
        <lane id=":11_1_0" index="0" disallow="pedestrian tram rail_urban rail rail_electric rail_fast ship" speed="8.88" length="18.03" width="3.50" shape="1094.23,797.58 1094.82,791.94 1096.61,787.95 1099.58,785.62 1103.74,784.94"/>
    </edge>
    <edge id=":11_2" function="internal">
        <lane id=":11_2_0" index="0" disallow="pedestrian tram rail_urban rail rail_electric rail_fast ship" speed="6.56" length="9.29" width="3.50" shape="1103.53,791.93 1100.99,792.22 1099.18,793.26 1098.09,795.04 1097.73,797.58"/>
    </edge>
    <edge id=":11_3" function="internal">
        <lane id=":11_3_0" index="0" disallow="pedestrian tram rail_urban rail rail_electric rail_fast ship" speed="17.88" length="15.21" width="3.50" shape="1103.53,791.93 1088.43,791.93"/>
        <lane id=":11_3_1" index="1" disallow="pedestrian tram rail_urban rail rail_electric rail_fast ship" speed="17.88" length="15.21" width="3.50" shape="1103.64,788.44 1088.32,788.43"/>
    </edge>
    <edge id=":11_5" function="internal">
        <lane id=":11_5_0" index="0" disallow="pedestrian tram rail_urban rail rail_electric rail_fast ship" speed="17.88" length="15.63" width="3.50" shape="1088.11,781.43 1103.85,781.44"/>
        <lane id=":11_5_1" index="1" disallow="pedestrian tram rail_urban rail rail_electric rail_fast ship" speed="17.88" length="15.63" width="3.50" shape="1088.22,784.93 1103.74,784.94"/>
    </edge>
    <edge id=":11_7" function="internal">
        <lane id=":11_7_0" index="0" disallow="pedestrian tram rail_urban rail rail_electric rail_fast ship" speed="8.88" length="5.94" width="3.50" shape="1088.22,784.93 1092.38,785.62 1093.74,786.68"/>
    </edge>
    <edge id=":11_8" function="internal">
        <lane id=":11_8_0" index="0" disallow="pedestrian tram rail_urban rail rail_electric rail_fast ship" speed="8.88" length="12.09" width="3.50" shape="1093.74,786.68 1095.35,787.95 1097.14,791.94 1097.73,797.58"/>
    </edge>
    <edge id=":12_0" function="internal">
        <lane id=":12_0_0" index="0" disallow="pedestrian tram rail_urban rail rail_electric rail_fast ship" speed="6.94" length="9.84" width="3.50" shape="1211.20,821.88,0.05 1208.82,821.03,0.04 1206.64,821.20,0.04 1204.65,822.37,0.03 1202.86,824.55,0.03"/>
    </edge>
    <edge id=":12_1" function="internal">
        <lane id=":12_1_0" index="0" disallow="pedestrian tram rail_urban rail rail_electric rail_fast ship" speed="17.88" length="15.17" width="3.50" shape="1211.20,821.88,0.05 1197.75,815.15,0.04"/>
        <lane id=":12_1_1" index="1" disallow="pedestrian tram rail_urban rail rail_electric rail_fast ship" speed="17.88" length="15.17" width="3.50" shape="1212.87,818.81,0.05 1199.19,811.96,0.04"/>
    </edge>
    <edge id=":12_3" function="internal">
        <lane id=":12_3_0" index="0" disallow="pedestrian tram rail_urban rail rail_electric rail_fast ship" speed="17.88" length="15.70" width="3.50" shape="1202.07,805.58,0.04 1216.22,812.66,0.05"/>
        <lane id=":12_3_1" index="1" disallow="pedestrian tram rail_urban rail rail_electric rail_fast ship" speed="17.88" length="15.70" width="3.50" shape="1200.63,808.77,0.04 1214.55,815.74,0.05"/>
    </edge>
    <edge id=":12_5" function="internal">
        <lane id=":12_5_0" index="0" disallow="pedestrian tram rail_urban rail rail_electric rail_fast ship" speed="8.70" length="6.25" width="3.50" shape="1200.63,808.77,0.04 1204.32,811.36,0.04 1205.05,812.93,0.04"/>
    </edge>
    <edge id=":12_8" function="internal">
        <lane id=":12_8_0" index="0" disallow="pedestrian tram rail_urban rail rail_electric rail_fast ship" speed="8.70" length="12.43" width="3.50" shape="1205.05,812.93,0.04 1205.93,814.85,0.03 1205.44,819.25,0.03 1202.86,824.55,0.03"/>
    </edge>
    <edge id=":12_6" function="internal">
        <lane id=":12_6_0" index="0" disallow="pedestrian tram rail_urban rail rail_electric rail_fast ship" speed="6.32" length="9.25" width="3.50" shape="1199.90,822.69,0.03 1200.97,820.30,0.03 1200.97,818.25,0.03 1199.90,816.53,0.04 1197.75,815.15,0.04"/>
    </edge>
    <edge id=":12_7" function="internal">
        <lane id=":12_7_0" index="0" disallow="pedestrian tram rail_urban rail rail_electric rail_fast ship" speed="9.19" length="18.06" width="3.50" shape="1199.90,822.69,0.03 1203.44,818.08,0.04 1207.06,815.39,0.04 1210.77,814.61,0.05 1214.55,815.74,0.05"/>
    </edge>
    <edge id=":13_0" function="internal">
        <lane id=":13_0_0" index="0" disallow="pedestrian tram rail_urban rail rail_electric rail_fast ship" speed="6.83" length="9.66" width="3.50" shape="1289.40,892.96,0.11 1287.68,891.10,0.10 1285.70,890.24,0.09 1283.47,890.38,0.07 1280.98,891.51,0.06"/>
    </edge>
    <edge id=":13_1" function="internal">
        <lane id=":13_1_0" index="0" disallow="pedestrian tram rail_urban rail rail_electric rail_fast ship" speed="17.88" length="15.34" width="3.50" shape="1289.40,892.96,0.11 1280.45,880.63,0.10"/>
        <lane id=":13_1_1" index="1" disallow="pedestrian tram rail_urban rail rail_electric rail_fast ship" speed="17.88" length="15.34" width="3.50" shape="1292.30,891.00,0.11 1283.22,878.49,0.10"/>
    </edge>
    <edge id=":13_3" function="internal">
        <lane id=":13_3_0" index="0" disallow="pedestrian tram rail_urban rail rail_electric rail_fast ship" speed="17.88" length="15.79" width="3.50" shape="1288.76,874.21,0.10 1298.10,887.08,0.11"/>
        <lane id=":13_3_1" index="1" disallow="pedestrian tram rail_urban rail rail_electric rail_fast ship" speed="17.88" length="15.79" width="3.50" shape="1285.99,876.35,0.10 1295.20,889.04,0.11"/>
    </edge>
    <edge id=":13_5" function="internal">
        <lane id=":13_5_0" index="0" disallow="pedestrian tram rail_urban rail rail_electric rail_fast ship" speed="8.78" length="6.19" width="3.50" shape="1285.99,876.35,0.10 1288.04,880.35,0.09 1287.97,882.05,0.08"/>
    </edge>
    <edge id=":13_8" function="internal">
        <lane id=":13_8_0" index="0" disallow="pedestrian tram rail_urban rail rail_electric rail_fast ship" speed="8.78" length="12.36" width="3.50" shape="1287.97,882.05,0.08 1287.88,884.21,0.08 1285.53,887.93,0.07 1280.98,891.51,0.06"/>
    </edge>
    <edge id=":13_6" function="internal">
        <lane id=":13_6_0" index="0" disallow="pedestrian tram rail_urban rail rail_electric rail_fast ship" speed="6.43" length="9.37" width="3.50" shape="1279.13,888.54,0.06 1281.10,886.87,0.07 1281.97,885.00,0.08 1281.76,882.92,0.09 1280.45,880.63,0.10"/>
    </edge>
    <edge id=":13_7" function="internal">
        <lane id=":13_7_0" index="0" disallow="pedestrian tram rail_urban rail rail_electric rail_fast ship" speed="9.10" length="18.01" width="3.50" shape="1279.13,888.54,0.06 1284.29,885.99,0.08 1288.69,885.22,0.09 1292.33,886.24,0.10 1295.20,889.04,0.11"/>
    </edge>
    <edge id=":14_0" function="internal">
        <lane id=":14_0_0" index="0" disallow="pedestrian tram rail_urban rail rail_electric rail_fast ship" speed="6.62" length="9.27" width="3.50" shape="937.23,1087.32 936.87,1084.80 935.79,1083.01 934.00,1081.93 931.48,1081.57"/>
    </edge>
    <edge id=":14_1" function="internal">
        <lane id=":14_1_0" index="0" disallow="pedestrian tram rail_urban rail rail_electric rail_fast ship" speed="17.88" length="22.00" width="3.50" shape="937.23,1087.32 937.23,1065.32"/>
        <lane id=":14_1_1" index="1" disallow="pedestrian tram rail_urban rail rail_electric rail_fast ship" speed="17.88" length="22.00" width="3.50" shape="940.73,1087.32 940.73,1065.32"/>
        <lane id=":14_1_2" index="2" disallow="pedestrian tram rail_urban rail rail_electric rail_fast ship" speed="17.88" length="22.00" width="3.50" shape="944.23,1087.32 944.23,1065.32"/>
    </edge>
    <edge id=":14_4" function="internal">
        <lane id=":14_4_0" index="0" disallow="pedestrian tram rail_urban rail rail_electric rail_fast ship" speed="10.17" length="6.88" width="3.50" shape="944.23,1087.32 945.25,1081.74 945.98,1080.78"/>
    </edge>
    <edge id=":14_17" function="internal">
        <lane id=":14_17_0" index="0" disallow="pedestrian tram rail_urban rail rail_electric rail_fast ship" speed="10.17" length="16.57" width="3.50" shape="945.98,1080.78 948.29,1077.76 953.37,1075.37 960.48,1074.57"/>
    </edge>
    <edge id=":14_5" function="internal">
        <lane id=":14_5_0" index="0" disallow="pedestrian tram rail_urban rail rail_electric rail_fast ship" speed="6.62" length="9.27" width="3.50" shape="960.48,1081.57 957.96,1081.93 956.17,1083.01 955.09,1084.80 954.73,1087.32"/>
    </edge>
    <edge id=":14_6" function="internal">
        <lane id=":14_6_0" index="0" disallow="pedestrian tram rail_urban rail rail_electric rail_fast ship" speed="17.88" length="29.00" width="3.50" shape="960.48,1081.57 931.48,1081.57"/>
        <lane id=":14_6_1" index="1" disallow="pedestrian tram rail_urban rail rail_electric rail_fast ship" speed="17.88" length="29.00" width="3.50" shape="960.48,1078.07 931.48,1078.07"/>
    </edge>
    <edge id=":14_8" function="internal">
        <lane id=":14_8_0" index="0" disallow="pedestrian tram rail_urban rail rail_electric rail_fast ship" speed="10.17" length="23.45" width="3.50" shape="960.48,1078.07 953.37,1077.27 948.29,1074.88 945.25,1070.90 944.23,1065.32"/>
    </edge>
    <edge id=":14_9" function="internal">
        <lane id=":14_9_0" index="0" disallow="pedestrian tram rail_urban rail rail_electric rail_fast ship" speed="6.62" length="9.27" width="3.50" shape="954.73,1065.32 955.09,1067.84 956.17,1069.63 957.96,1070.71 960.48,1071.07"/>
    </edge>
    <edge id=":14_10" function="internal">
        <lane id=":14_10_0" index="0" disallow="pedestrian tram rail_urban rail rail_electric rail_fast ship" speed="17.88" length="22.00" width="3.50" shape="954.73,1065.32 954.73,1087.32"/>
        <lane id=":14_10_1" index="1" disallow="pedestrian tram rail_urban rail rail_electric rail_fast ship" speed="17.88" length="22.00" width="3.50" shape="951.23,1065.32 951.23,1087.32"/>
        <lane id=":14_10_2" index="2" disallow="pedestrian tram rail_urban rail rail_electric rail_fast ship" speed="17.88" length="22.00" width="3.50" shape="947.73,1065.32 947.73,1087.32"/>
    </edge>
    <edge id=":14_13" function="internal">
        <lane id=":14_13_0" index="0" disallow="pedestrian tram rail_urban rail rail_electric rail_fast ship" speed="10.17" length="6.88" width="3.50" shape="947.73,1065.32 946.71,1070.90 945.98,1071.86"/>
    </edge>
    <edge id=":14_18" function="internal">
        <lane id=":14_18_0" index="0" disallow="pedestrian tram rail_urban rail rail_electric rail_fast ship" speed="10.17" length="16.57" width="3.50" shape="945.98,1071.86 943.67,1074.88 938.59,1077.27 931.48,1078.07"/>
    </edge>
    <edge id=":14_14" function="internal">
        <lane id=":14_14_0" index="0" disallow="pedestrian tram rail_urban rail rail_electric rail_fast ship" speed="6.62" length="9.27" width="3.50" shape="931.48,1071.07 934.00,1070.71 935.79,1069.63 936.87,1067.84 937.23,1065.32"/>
    </edge>
    <edge id=":14_15" function="internal">
        <lane id=":14_15_0" index="0" disallow="pedestrian tram rail_urban rail rail_electric rail_fast ship" speed="17.88" length="29.00" width="3.50" shape="931.48,1071.07 960.48,1071.07"/>
        <lane id=":14_15_1" index="1" disallow="pedestrian tram rail_urban rail rail_electric rail_fast ship" speed="17.88" length="29.00" width="3.50" shape="931.48,1074.57 960.48,1074.57"/>
    </edge>
    <edge id=":15_0" function="internal">
        <lane id=":15_0_0" index="0" disallow="pedestrian tram rail_urban rail rail_electric rail_fast ship" speed="17.88" length="30.37" width="3.50" shape="1340.49,1011.09,0.16 1340.88,1018.68,0.16 1341.01,1026.38,0.16 1340.88,1034.09,0.16 1340.49,1041.67,0.15"/>
        <lane id=":15_0_1" index="1" disallow="pedestrian tram rail_urban rail rail_electric rail_fast ship" speed="17.88" length="30.37" width="3.50" shape="1337.00,1011.30,0.16 1337.39,1018.82,0.16 1337.52,1026.36,0.16 1337.39,1033.91,0.16 1336.99,1041.42,0.15"/>
    </edge>
    <edge id=":15_2" function="internal">
        <lane id=":15_2_0" index="0" disallow="pedestrian tram rail_urban rail rail_electric rail_fast ship" speed="10.06" length="24.15" width="3.50" shape="1337.00,1011.30,0.16 1336.66,1018.64,0.13 1334.46,1023.88,0.11 1330.41,1027.02,0.09 1324.50,1028.07,0.07"/>
    </edge>
    <edge id=":15_3" function="internal">
        <lane id=":15_3_0" index="0" disallow="pedestrian tram rail_urban rail rail_electric rail_fast ship" speed="6.48" length="9.32" width="3.50" shape="1324.50,1017.57,0.07 1327.06,1017.20,0.09 1328.84,1016.11,0.12 1329.82,1014.28,0.14 1330.01,1011.72,0.16"/>
    </edge>
    <edge id=":15_4" function="internal">
        <lane id=":15_4_0" index="0" disallow="pedestrian tram rail_urban rail rail_electric rail_fast ship" speed="11.18" length="30.15" width="3.50" shape="1324.50,1021.07,0.07 1332.03,1022.36,0.09 1337.21,1026.22,0.11 1340.03,1032.66,0.13 1340.49,1041.67,0.15"/>
    </edge>
    <edge id=":15_5" function="internal">
        <lane id=":15_5_0" index="0" disallow="pedestrian tram rail_urban rail rail_electric rail_fast ship" speed="10.07" length="24.23" width="3.50" shape="1324.50,1024.57,0.07 1330.41,1025.62,0.09 1334.46,1028.78,0.11 1336.66,1034.05,0.13 1336.99,1041.42,0.15"/>
    </edge>
    <edge id=":15_6" function="internal">
        <lane id=":15_6_0" index="0" disallow="pedestrian tram rail_urban rail rail_electric rail_fast ship" speed="6.48" length="9.33" width="3.50" shape="1330.01,1040.94,0.15 1329.82,1038.37,0.13 1328.84,1036.54,0.11 1327.07,1035.44,0.10 1324.50,1035.07,0.07"/>
    </edge>
    <edge id=":15_7" function="internal">
        <lane id=":15_7_0" index="0" disallow="pedestrian tram rail_urban rail rail_electric rail_fast ship" speed="17.88" length="29.46" width="3.50" shape="1330.01,1040.94,0.15 1330.40,1033.57,0.16 1330.54,1026.33,0.16 1330.40,1019.09,0.16 1330.01,1011.72,0.16"/>
        <lane id=":15_7_1" index="1" disallow="pedestrian tram rail_urban rail rail_electric rail_fast ship" speed="17.88" length="29.46" width="3.50" shape="1333.50,1041.18,0.15 1333.90,1033.74,0.16 1334.03,1026.35,0.16 1333.90,1018.95,0.16 1333.51,1011.51,0.16"/>
    </edge>
    <edge id=":16_0" function="internal">
        <lane id=":16_0_0" index="0" disallow="pedestrian tram rail_urban rail rail_electric rail_fast ship" speed="17.88" length="15.87" width="3.50" shape="1308.32,1148.97,0.15 1300.05,1162.64,0.16"/>
        <lane id=":16_0_1" index="1" disallow="pedestrian tram rail_urban rail rail_electric rail_fast ship" speed="17.88" length="15.87" width="3.50" shape="1305.28,1147.24,0.15 1297.12,1160.72,0.16"/>
    </edge>
    <edge id=":16_2" function="internal">
        <lane id=":16_2_0" index="0" disallow="pedestrian tram rail_urban rail rail_electric rail_fast ship" speed="8.57" length="6.74" width="3.50" shape="1305.28,1147.24,0.15 1302.11,1151.17,0.11 1300.51,1151.74,0.10"/>
    </edge>
    <edge id=":16_8" function="internal">
        <lane id=":16_8_0" index="0" disallow="pedestrian tram rail_urban rail rail_electric rail_fast ship" speed="8.57" length="13.04" width="3.50" shape="1300.51,1151.74,0.10 1298.36,1152.51,0.08 1294.03,1151.25,0.05 1289.11,1147.41"/>
    </edge>
    <edge id=":16_3" function="internal">
        <lane id=":16_3_0" index="0" disallow="pedestrian tram rail_urban rail rail_electric rail_fast ship" speed="6.14" length="9.49" width="3.50" shape="1291.57,1144.92 1293.75,1146.52,0.04 1295.74,1146.87,0.07 1297.56,1145.96,0.11 1299.19,1143.78,0.15"/>
    </edge>
    <edge id=":16_4" function="internal">
        <lane id=":16_4_0" index="0" disallow="pedestrian tram rail_urban rail rail_electric rail_fast ship" speed="9.72" length="18.11" width="3.50" shape="1291.57,1144.92 1295.54,1149.48,0.05 1297.79,1153.63,0.09 1298.32,1157.38,0.13 1297.12,1160.72,0.16"/>
    </edge>
    <edge id=":16_5" function="internal">
        <lane id=":16_5_0" index="0" disallow="pedestrian tram rail_urban rail rail_electric rail_fast ship" speed="7.58" length="10.63" width="3.50" shape="1291.27,1156.89,0.16 1292.23,1154.62,0.12 1292.19,1152.28,0.09 1291.15,1149.88,0.05 1289.11,1147.41"/>
    </edge>
    <edge id=":16_6" function="internal">