<?xml version="1.0" encoding="UTF-8"?>

<!-- generated on 02/23/21 10:17:18 by Eclipse SUMO netedit Version 1.5.0
<configuration xmlns:xsi="http://www.w3.org/2001/XMLSchema-instance" xsi:noNamespaceSchemaLocation="http://sumo.dlr.de/xsd/netconvertConfiguration.xsd">

    <input>
        <sumo-net-file value="circ_fix.net.xml"/>
    </input>

    <output>
        <output-file value="circ_fix.net.xml"/>
    </output>

    <processing>
        <geometry.min-radius.fix.railways value="false"/>
        <geometry.max-grade.fix value="false"/>
        <offset.disable-normalization value="true"/>
        <lefthand value="false"/>
    </processing>

    <junctions>
        <no-turnarounds value="true"/>
        <junctions.corner-detail value="5"/>
        <junctions.limit-turn-speed value="5.5"/>
        <rectangular-lane-cut value="true"/>
    </junctions>

    <pedestrian>
        <walkingareas value="false"/>
    </pedestrian>

    <report>
        <aggregate-warnings value="5"/>
    </report>

</configuration>
-->

<net version="1.3" junctionCornerDetail="5" rectangularLaneCut="true" limitTurnSpeed="5.50" xmlns:xsi="http://www.w3.org/2001/XMLSchema-instance" xsi:noNamespaceSchemaLocation="http://sumo.dlr.de/xsd/net_file.xsd">

    <location netOffset="0.00,0.00" convBoundary="0.00,0.00,449.48,474.73" origBoundary="-0.00,-0.08,449.97,474.73" projParameter="!"/>

    <type id="bidirectional" priority="1" speed="1.39" disallow="pedestrian tram rail_urban rail rail_electric rail_fast ship" width="3.65"/>
    <type id="border" priority="0" speed="1.39" disallow="all" discard="1" width="0.10"/>
    <type id="driving" priority="1" speed="13.89" disallow="pedestrian tram rail_urban rail rail_electric rail_fast ship" width="3.65"/>
    <type id="entry" priority="1" speed="22.22" disallow="pedestrian tram rail_urban rail rail_electric rail_fast ship" width="3.65"/>
    <type id="exit" priority="1" speed="22.22" disallow="pedestrian tram rail_urban rail rail_electric rail_fast ship" width="3.65"/>
    <type id="median" priority="0" speed="1.39" disallow="all" discard="1" width="0.10"/>
    <type id="mwyEntry" priority="1" speed="22.22" allow="private emergency authority army vip passenger hov taxi bus coach delivery truck trailer motorcycle evehicle custom1 custom2" width="3.65"/>
    <type id="mwyExit" priority="1" speed="22.22" allow="private emergency authority army vip passenger hov taxi bus coach delivery truck trailer motorcycle evehicle custom1 custom2" width="3.65"/>
    <type id="none" priority="0" speed="1.39" disallow="all" discard="1" width="1.00"/>
    <type id="offRamp" priority="1" speed="22.22" allow="private emergency authority army vip passenger hov taxi bus coach delivery truck trailer motorcycle evehicle custom1 custom2" width="3.65"/>
    <type id="onRamp" priority="1" speed="22.22" allow="private emergency authority army vip passenger hov taxi bus coach delivery truck trailer motorcycle evehicle custom1 custom2" width="3.65"/>
    <type id="parking" priority="1" speed="1.39" disallow="pedestrian tram rail_urban rail rail_electric rail_fast ship" width="2.50"/>
    <type id="rail" priority="3" speed="33.33" allow="rail_urban rail rail_electric rail_fast" width="3.65"/>
    <type id="restricted" priority="0" speed="13.89" disallow="all" width="3.65"/>
    <type id="roadWorks" priority="0" speed="1.39" allow="authority" width="3.65"/>
    <type id="shoulder" priority="0" speed="1.39" disallow="all" discard="1" width="1.00"/>
    <type id="special1" priority="1" speed="22.22" allow="custom1" discard="1" width="3.65"/>
    <type id="special2" priority="1" speed="22.22" allow="custom2" discard="1" width="3.65"/>
    <type id="special3" priority="1" speed="22.22" allow="custom1 custom2" discard="1" width="3.65"/>
    <type id="stop" priority="1" speed="13.89" disallow="pedestrian tram rail_urban rail rail_electric rail_fast ship" width="3.65"/>
    <type id="tram" priority="2" speed="13.89" allow="tram" width="3.65"/>

    <edge id=":1_0" function="internal">
        <lane id=":1_0_0" index="0" disallow="pedestrian tram rail_urban rail rail_electric rail_fast ship" speed="17.88" length="22.00" width="3.50" shape="201.25,400.73 201.25,378.73"/>
        <lane id=":1_0_1" index="1" disallow="pedestrian tram rail_urban rail rail_electric rail_fast ship" speed="17.88" length="22.00" width="3.50" shape="204.75,400.73 204.75,378.73"/>
        <lane id=":1_0_2" index="2" disallow="pedestrian tram rail_urban rail rail_electric rail_fast ship" speed="17.88" length="22.00" width="3.50" shape="208.25,400.73 208.25,378.73"/>
    </edge>
    <edge id=":1_3" function="internal">
        <lane id=":1_3_0" index="0" disallow="pedestrian tram rail_urban rail rail_electric rail_fast ship" speed="10.17" length="6.88" width="3.50" shape="208.25,400.73 209.27,395.15 210.00,394.19"/>
    </edge>
    <edge id=":1_10" function="internal">
        <lane id=":1_10_0" index="0" disallow="pedestrian tram rail_urban rail rail_electric rail_fast ship" speed="10.17" length="16.57" width="3.50" shape="210.00,394.19 212.31,391.17 217.39,388.78 224.50,387.98"/>
    </edge>
    <edge id=":1_4" function="internal">
        <lane id=":1_4_0" index="0" disallow="pedestrian tram rail_urban rail rail_electric rail_fast ship" speed="6.62" length="9.27" width="3.50" shape="224.50,394.98 221.98,395.34 220.19,396.42 219.11,398.21 218.75,400.73"/>
    </edge>
    <edge id=":1_5" function="internal">
        <lane id=":1_5_0" index="0" disallow="pedestrian tram rail_urban rail rail_electric rail_fast ship" speed="10.17" length="23.45" width="3.50" shape="224.50,391.48 217.39,390.68 212.31,388.29 209.27,384.31 208.25,378.73"/>
    </edge>
    <edge id=":1_6" function="internal">
        <lane id=":1_6_0" index="0" disallow="pedestrian tram rail_urban rail rail_electric rail_fast ship" speed="6.62" length="9.27" width="3.50" shape="218.75,378.73 219.11,381.25 220.19,383.04 221.98,384.12 224.50,384.48"/>
    </edge>
    <edge id=":1_7" function="internal">
        <lane id=":1_7_0" index="0" disallow="pedestrian tram rail_urban rail rail_electric rail_fast ship" speed="17.88" length="22.00" width="3.50" shape="218.75,378.73 218.75,400.73"/>
        <lane id=":1_7_1" index="1" disallow="pedestrian tram rail_urban rail rail_electric rail_fast ship" speed="17.88" length="22.00" width="3.50" shape="215.25,378.73 215.25,400.73"/>
        <lane id=":1_7_2" index="2" disallow="pedestrian tram rail_urban rail rail_electric rail_fast ship" speed="17.88" length="22.00" width="3.50" shape="211.75,378.73 211.75,400.73"/>
    </edge>
    <edge id=":10_0" function="internal">
        <lane id=":10_0_0" index="0" disallow="pedestrian tram rail_urban rail rail_electric rail_fast ship" speed="6.70" length="9.48" width="3.50" shape="103.98,39.34 102.26,37.27 100.34,36.21 98.23,36.17 95.93,37.14"/>
    </edge>
    <edge id=":10_1" function="internal">
        <lane id=":10_1_0" index="0" disallow="pedestrian tram rail_urban rail rail_electric rail_fast ship" speed="8.81" length="18.34" width="3.50" shape="103.98,39.34 101.45,34.16 100.90,29.80 102.34,26.26 105.75,23.54"/>
    </edge>
    <edge id=":10_2" function="internal">
        <lane id=":10_2_0" index="0" disallow="pedestrian tram rail_urban rail rail_electric rail_fast ship" speed="6.46" length="9.30" width="3.50" shape="109.01,29.73 106.92,31.25 105.88,33.04 105.89,35.11 106.94,37.47"/>
    </edge>
    <edge id=":10_3" function="internal">
        <lane id=":10_3_0" index="0" disallow="pedestrian tram rail_urban rail rail_electric rail_fast ship" speed="17.88" length="15.15" width="3.50" shape="109.01,29.73 95.93,37.14"/>
        <lane id=":10_3_1" index="1" disallow="pedestrian tram rail_urban rail rail_electric rail_fast ship" speed="17.88" length="15.15" width="3.50" shape="107.38,26.64 94.09,34.17"/>
    </edge>
    <edge id=":10_5" function="internal">
        <lane id=":10_5_0" index="0" disallow="pedestrian tram rail_urban rail rail_electric rail_fast ship" speed="17.88" length="15.64" width="3.50" shape="90.42,28.21 104.13,20.44"/>
        <lane id=":10_5_1" index="1" disallow="pedestrian tram rail_urban rail rail_electric rail_fast ship" speed="17.88" length="15.64" width="3.50" shape="92.25,31.19 105.75,23.54"/>
    </edge>
    <edge id=":10_7" function="internal">
        <lane id=":10_7_0" index="0" disallow="pedestrian tram rail_urban rail rail_electric rail_fast ship" speed="9.00" length="5.80" width="3.50" shape="92.25,31.19 96.07,29.79 97.79,30.06"/>
    </edge>
    <edge id=":10_8" function="internal">
        <lane id=":10_8_0" index="0" disallow="pedestrian tram rail_urban rail rail_electric rail_fast ship" speed="9.00" length="12.21" width="3.50" shape="97.79,30.06 99.79,30.37 103.41,32.93 106.94,37.47"/>
    </edge>
    <edge id=":11_0" function="internal">
        <lane id=":11_0_0" index="0" disallow="pedestrian tram rail_urban rail rail_electric rail_fast ship" speed="6.56" length="9.29" width="3.50" shape="208.25,10.98 207.89,8.45 206.80,6.66 204.99,5.63 202.45,5.34"/>
    </edge>
    <edge id=":11_1" function="internal">
        <lane id=":11_1_0" index="0" disallow="pedestrian tram rail_urban rail rail_electric rail_fast ship" speed="8.88" length="18.03" width="3.50" shape="208.25,10.98 208.84,5.35 210.63,1.36 213.60,-0.97 217.76,-1.65"/>
    </edge>
    <edge id=":11_2" function="internal">
        <lane id=":11_2_0" index="0" disallow="pedestrian tram rail_urban rail rail_electric rail_fast ship" speed="6.56" length="9.29" width="3.50" shape="217.55,5.34 215.01,5.63 213.20,6.67 212.11,8.45 211.75,10.98"/>
    </edge>
    <edge id=":11_3" function="internal">
        <lane id=":11_3_0" index="0" disallow="pedestrian tram rail_urban rail rail_electric rail_fast ship" speed="17.88" length="15.21" width="3.50" shape="217.55,5.34 202.45,5.34"/>
        <lane id=":11_3_1" index="1" disallow="pedestrian tram rail_urban rail rail_electric rail_fast ship" speed="17.88" length="15.21" width="3.50" shape="217.66,1.85 202.34,1.84"/>
    </edge>
    <edge id=":11_5" function="internal">
        <lane id=":11_5_0" index="0" disallow="pedestrian tram rail_urban rail rail_electric rail_fast ship" speed="17.88" length="15.63" width="3.50" shape="202.13,-5.16 217.87,-5.15"/>
        <lane id=":11_5_1" index="1" disallow="pedestrian tram rail_urban rail rail_electric rail_fast ship" speed="17.88" length="15.63" width="3.50" shape="202.24,-1.66 217.76,-1.65"/>
    </edge>
    <edge id=":11_7" function="internal">
        <lane id=":11_7_0" index="0" disallow="pedestrian tram rail_urban rail rail_electric rail_fast ship" speed="8.88" length="5.94" width="3.50" shape="202.24,-1.66 206.40,-0.97 207.76,0.09"/>
    </edge>
    <edge id=":11_8" function="internal">
        <lane id=":11_8_0" index="0" disallow="pedestrian tram rail_urban rail rail_electric rail_fast ship" speed="8.88" length="12.09" width="3.50" shape="207.76,0.09 209.37,1.36 211.16,5.35 211.75,10.98"/>
    </edge>
    <edge id=":12_0" function="internal">
        <lane id=":12_0_0" index="0" disallow="pedestrian tram rail_urban rail rail_electric rail_fast ship" speed="6.94" length="9.84" width="3.50" shape="325.22,35.29,0.05 322.84,34.44,0.04 320.66,34.61,0.04 318.67,35.78,0.03 316.88,37.96,0.03"/>
    </edge>
    <edge id=":12_1" function="internal">
        <lane id=":12_1_0" index="0" disallow="pedestrian tram rail_urban rail rail_electric rail_fast ship" speed="17.88" length="15.17" width="3.50" shape="325.22,35.29,0.05 311.77,28.56,0.04"/>
        <lane id=":12_1_1" index="1" disallow="pedestrian tram rail_urban rail rail_electric rail_fast ship" speed="17.88" length="15.17" width="3.50" shape="326.89,32.22,0.05 313.21,25.37,0.04"/>
    </edge>
    <edge id=":12_3" function="internal">
        <lane id=":12_3_0" index="0" disallow="pedestrian tram rail_urban rail rail_electric rail_fast ship" speed="17.88" length="15.70" width="3.50" shape="316.09,18.99,0.04 330.24,26.07,0.05"/>
        <lane id=":12_3_1" index="1" disallow="pedestrian tram rail_urban rail rail_electric rail_fast ship" speed="17.88" length="15.70" width="3.50" shape="314.65,22.18,0.04 328.57,29.15,0.05"/>
    </edge>
    <edge id=":12_5" function="internal">
        <lane id=":12_5_0" index="0" disallow="pedestrian tram rail_urban rail rail_electric rail_fast ship" speed="8.70" length="6.25" width="3.50" shape="314.65,22.18,0.04 318.34,24.77,0.04 319.07,26.34,0.04"/>
    </edge>
    <edge id=":12_8" function="internal">
        <lane id=":12_8_0" index="0" disallow="pedestrian tram rail_urban rail rail_electric rail_fast ship" speed="8.70" length="12.43" width="3.50" shape="319.07,26.34,0.04 319.95,28.26,0.03 319.46,32.66,0.03 316.88,37.96,0.03"/>
    </edge>
    <edge id=":12_6" function="internal">
        <lane id=":12_6_0" index="0" disallow="pedestrian tram rail_urban rail rail_electric rail_fast ship" speed="6.32" length="9.25" width="3.50" shape="313.92,36.10,0.03 314.99,33.71,0.03 314.99,31.66,0.03 313.92,29.94,0.04 311.77,28.56,0.04"/>
    </edge>
    <edge id=":12_7" function="internal">
        <lane id=":12_7_0" index="0" disallow="pedestrian tram rail_urban rail rail_electric rail_fast ship" speed="9.19" length="18.06" width="3.50" shape="313.92,36.10,0.03 317.46,31.49,0.04 321.08,28.80,0.04 324.79,28.02,0.05 328.57,29.15,0.05"/>
    </edge>
    <edge id=":13_0" function="internal">
        <lane id=":13_0_0" index="0" disallow="pedestrian tram rail_urban rail rail_electric rail_fast ship" speed="6.82" length="9.67" width="3.50" shape="403.42,106.37,0.11 401.70,104.51,0.10 399.72,103.65,0.09 397.49,103.79,0.07 395.00,104.92,0.06"/>
    </edge>
    <edge id=":13_1" function="internal">
        <lane id=":13_1_0" index="0" disallow="pedestrian tram rail_urban rail rail_electric rail_fast ship" speed="17.88" length="15.15" width="3.50" shape="403.42,106.37,0.11 394.60,94.20,0.09"/>
        <lane id=":13_1_1" index="1" disallow="pedestrian tram rail_urban rail rail_electric rail_fast ship" speed="17.88" length="15.15" width="3.50" shape="406.32,104.41,0.11 397.35,92.04,0.09"/>
    </edge>
    <edge id=":13_3" function="internal">
        <lane id=":13_3_0" index="0" disallow="pedestrian tram rail_urban rail rail_electric rail_fast ship" speed="17.88" length="15.66" width="3.50" shape="402.86,87.71,0.09 412.12,100.49,0.11"/>
        <lane id=":13_3_1" index="1" disallow="pedestrian tram rail_urban rail rail_electric rail_fast ship" speed="17.88" length="15.66" width="3.50" shape="400.11,89.88,0.09 409.22,102.45,0.11"/>
    </edge>
    <edge id=":13_5" function="internal">
        <lane id=":13_5_0" index="0" disallow="pedestrian tram rail_urban rail rail_electric rail_fast ship" speed="8.75" length="6.15" width="3.50" shape="400.11,89.88,0.09 402.13,93.80,0.09 402.05,95.53,0.08"/>
    </edge>
    <edge id=":13_8" function="internal">
        <lane id=":13_8_0" index="0" disallow="pedestrian tram rail_urban rail rail_electric rail_fast ship" speed="8.75" length="12.32" width="3.50" shape="402.05,95.53,0.08 401.95,97.61,0.08 399.57,101.32,0.07 395.00,104.92,0.06"/>
    </edge>
    <edge id=":13_6" function="internal">
        <lane id=":13_6_0" index="0" disallow="pedestrian tram rail_urban rail rail_electric rail_fast ship" speed="6.38" length="9.24" width="3.50" shape="393.14,101.96,0.06 395.13,100.28,0.07 396.04,98.43,0.08 395.86,96.40,0.08 394.60,94.20,0.09"/>
    </edge>
    <edge id=":13_7" function="internal">
        <lane id=":13_7_0" index="0" disallow="pedestrian tram rail_urban rail rail_electric rail_fast ship" speed="9.09" length="18.03" width="3.50" shape="393.14,101.96,0.06 398.30,99.39,0.08 402.70,98.62,0.09 406.34,99.64,0.10 409.22,102.45,0.11"/>
    </edge>
    <edge id=":14_0" function="internal">
        <lane id=":14_0_0" index="0" disallow="pedestrian tram rail_urban rail rail_electric rail_fast ship" speed="6.62" length="9.27" width="3.50" shape="51.25,300.73 50.89,298.21 49.81,296.42 48.02,295.34 45.50,294.98"/>
    </edge>
    <edge id=":14_1" function="internal">
        <lane id=":14_1_0" index="0" disallow="pedestrian tram rail_urban rail rail_electric rail_fast ship" speed="17.88" length="22.00" width="3.50" shape="51.25,300.73 51.25,278.73"/>
        <lane id=":14_1_1" index="1" disallow="pedestrian tram rail_urban rail rail_electric rail_fast ship" speed="17.88" length="22.00" width="3.50" shape="54.75,300.73 54.75,278.73"/>
        <lane id=":14_1_2" index="2" disallow="pedestrian tram rail_urban rail rail_electric rail_fast ship" speed="17.88" length="22.00" width="3.50" shape="58.25,300.73 58.25,278.73"/>
    </edge>
    <edge id=":14_4" function="internal">
        <lane id=":14_4_0" index="0" disallow="pedestrian tram rail_urban rail rail_electric rail_fast ship" speed="10.17" length="6.88" width="3.50" shape="58.25,300.73 59.27,295.15 60.00,294.19"/>
    </edge>
    <edge id=":14_17" function="internal">
        <lane id=":14_17_0" index="0" disallow="pedestrian tram rail_urban rail rail_electric rail_fast ship" speed="10.17" length="16.57" width="3.50" shape="60.00,294.19 62.31,291.17 67.39,288.78 74.50,287.98"/>
    </edge>
    <edge id=":14_5" function="internal">
        <lane id=":14_5_0" index="0" disallow="pedestrian tram rail_urban rail rail_electric rail_fast ship" speed="6.62" length="9.27" width="3.50" shape="74.50,294.98 71.98,295.34 70.19,296.42 69.11,298.21 68.75,300.73"/>
    </edge>
    <edge id=":14_6" function="internal">
        <lane id=":14_6_0" index="0" disallow="pedestrian tram rail_urban rail rail_electric rail_fast ship" speed="17.88" length="29.00" width="3.50" shape="74.50,294.98 45.50,294.98"/>
        <lane id=":14_6_1" index="1" disallow="pedestrian tram rail_urban rail rail_electric rail_fast ship" speed="17.88" length="29.00" width="3.50" shape="74.50,291.48 45.50,291.48"/>
    </edge>
    <edge id=":14_8" function="internal">
        <lane id=":14_8_0" index="0" disallow="pedestrian tram rail_urban rail rail_electric rail_fast ship" speed="10.17" length="23.45" width="3.50" shape="74.50,291.48 67.39,290.68 62.31,288.29 59.27,284.31 58.25,278.73"/>
    </edge>
    <edge id=":14_9" function="internal">
        <lane id=":14_9_0" index="0" disallow="pedestrian tram rail_urban rail rail_electric rail_fast ship" speed="6.62" length="9.27" width="3.50" shape="68.75,278.73 69.11,281.25 70.19,283.04 71.98,284.12 74.50,284.48"/>
    </edge>
    <edge id=":14_10" function="internal">
        <lane id=":14_10_0" index="0" disallow="pedestrian tram rail_urban rail rail_electric rail_fast ship" speed="17.88" length="22.00" width="3.50" shape="68.75,278.73 68.75,300.73"/>
        <lane id=":14_10_1" index="1" disallow="pedestrian tram rail_urban rail rail_electric rail_fast ship" speed="17.88" length="22.00" width="3.50" shape="65.25,278.73 65.25,300.73"/>
        <lane id=":14_10_2" index="2" disallow="pedestrian tram rail_urban rail rail_electric rail_fast ship" speed="17.88" length="22.00" width="3.50" shape="61.75,278.73 61.75,300.73"/>
    </edge>
    <edge id=":14_13" function="internal">
        <lane id=":14_13_0" index="0" disallow="pedestrian tram rail_urban rail rail_electric rail_fast ship" speed="10.17" length="6.88" width="3.50" shape="61.75,278.73 60.73,284.31 60.00,285.27"/>
    </edge>
    <edge id=":14_18" function="internal">
        <lane id=":14_18_0" index="0" disallow="pedestrian tram rail_urban rail rail_electric rail_fast ship" speed="10.17" length="16.57" width="3.50" shape="60.00,285.27 57.69,288.29 52.61,290.68 45.50,291.48"/>
    </edge>
    <edge id=":14_14" function="internal">
        <lane id=":14_14_0" index="0" disallow="pedestrian tram rail_urban rail rail_electric rail_fast ship" speed="6.62" length="9.27" width="3.50" shape="45.50,284.48 48.02,284.12 49.81,283.04 50.89,281.25 51.25,278.73"/>
    </edge>
    <edge id=":14_15" function="internal">
        <lane id=":14_15_0" index="0" disallow="pedestrian tram rail_urban rail rail_electric rail_fast ship" speed="17.88" length="29.00" width="3.50" shape="45.50,284.48 74.50,284.48"/>
        <lane id=":14_15_1" index="1" disallow="pedestrian tram rail_urban rail rail_electric rail_fast ship" speed="17.88" length="29.00" width="3.50" shape="45.50,287.98 74.50,287.98"/>
    </edge>
    <edge id=":15_0" function="internal">
        <lane id=":15_0_0" index="0" disallow="pedestrian tram rail_urban rail rail_electric rail_fast ship" speed="17.88" length="30.37" width="3.50" shape="454.51,224.50,0.16 454.90,232.09,0.16 455.03,239.79,0.16 454.90,247.50,0.16 454.51,255.08,0.15"/>
        <lane id=":15_0_1" index="1" disallow="pedestrian tram rail_urban rail rail_electric rail_fast ship" speed="17.88" length="30.37" width="3.50" shape="451.02,224.71,0.16 451.41,232.23,0.16 451.54,239.77,0.16 451.41,247.32,0.16 451.01,254.83,0.15"/>
    </edge>
    <edge id=":15_2" function="internal">
        <lane id=":15_2_0" index="0" disallow="pedestrian tram rail_urban rail rail_electric rail_fast ship" speed="10.06" length="24.15" width="3.50" shape="451.02,224.71,0.16 450.68,232.05,0.13 448.48,237.29,0.11 444.43,240.43,0.09 438.52,241.48,0.07"/>
    </edge>
    <edge id=":15_3" function="internal">
        <lane id=":15_3_0" index="0" disallow="pedestrian tram rail_urban rail rail_electric rail_fast ship" speed="6.48" length="9.32" width="3.50" shape="438.52,230.98,0.07 441.08,230.61,0.09 442.86,229.52,0.12 443.84,227.69,0.14 444.03,225.13,0.16"/>
    </edge>
    <edge id=":15_4" function="internal">
        <lane id=":15_4_0" index="0" disallow="pedestrian tram rail_urban rail rail_electric rail_fast ship" speed="11.18" length="30.15" width="3.50" shape="438.52,234.48,0.07 446.05,235.77,0.09 451.23,239.63,0.11 454.05,246.07,0.13 454.51,255.08,0.15"/>
    </edge>
    <edge id=":15_5" function="internal">
        <lane id=":15_5_0" index="0" disallow="pedestrian tram rail_urban rail rail_electric rail_fast ship" speed="10.07" length="24.23" width="3.50" shape="438.52,237.98,0.07 444.43,239.03,0.09 448.48,242.19,0.11 450.68,247.46,0.13 451.01,254.83,0.15"/>
    </edge>
    <edge id=":15_6" function="internal">
        <lane id=":15_6_0" index="0" disallow="pedestrian tram rail_urban rail rail_electric rail_fast ship" speed="6.48" length="9.33" width="3.50" shape="444.03,254.35,0.15 443.84,251.78,0.13 442.86,249.95,0.11 441.09,248.85,0.10 438.52,248.48,0.07"/>
    </edge>
    <edge id=":15_7" function="internal">
        <lane id=":15_7_0" index="0" disallow="pedestrian tram rail_urban rail rail_electric rail_fast ship" speed="17.88" length="29.46" width="3.50" shape="444.03,254.35,0.15 444.42,246.98,0.16 444.56,239.74,0.16 444.42,232.50,0.16 444.03,225.13,0.16"/>
        <lane id=":15_7_1" index="1" disallow="pedestrian tram rail_urban rail rail_electric rail_fast ship" speed="17.88" length="29.46" width="3.50" shape="447.52,254.59,0.15 447.92,247.15,0.16 448.05,239.76,0.16 447.92,232.36,0.16 447.53,224.92,0.16"/>
    </edge>
    <edge id=":16_0" function="internal">
        <lane id=":16_0_0" index="0" disallow="pedestrian tram rail_urban rail rail_electric rail_fast ship" speed="17.88" length="15.73" width="3.50" shape="422.27,362.50,0.14 414.06,376.06,0.16"/>
        <lane id=":16_0_1" index="1" disallow="pedestrian tram rail_urban rail rail_electric rail_fast ship" speed="17.88" length="15.73" width="3.50" shape="419.21,360.80,0.14 411.13,374.15,0.16"/>
    </edge>
    <edge id=":16_2" function="internal">
        <lane id=":16_2_0" index="0" disallow="pedestrian tram rail_urban rail rail_electric rail_fast ship" speed="8.56" length="6.60" width="3.50" shape="419.21,360.80,0.14 416.07,364.64,0.11 414.52,365.17,0.09"/>
    </edge>
    <edge id=":16_8" function="internal">
        <lane id=":16_8_0" index="0" disallow="pedestrian tram rail_urban rail rail_electric rail_fast ship" speed="8.56" length="13.04" width="3.50" shape="414.52,365.17,0.09 412.34,365.92,0.08 408.02,364.65,0.05 403.12,360.81"/>
    </edge>
    <edge id=":16_3" function="internal">
        <lane id=":16_3_0" index="0" disallow="pedestrian tram rail_urban rail rail_electric rail_fast ship" speed="6.10" length="9.31" width="3.50" shape="405.57,358.31 407.74,359.93,0.04 409.72,360.31,0.07 411.50,359.47,0.10 413.10,357.39,0.14"/>
    </edge>
    <edge id=":16_4" function="internal">
        <lane id=":16_4_0" index="0" disallow="pedestrian tram rail_urban rail rail_electric rail_fast ship" speed="9.73" length="18.14" width="3.50" shape="405.57,358.31 409.55,362.88,0.05 411.80,367.04,0.09 412.33,370.80,0.13 411.13,374.15,0.16"/>
    </edge>
    <edge id=":16_5" function="internal">
        <lane id=":16_5_0" index="0" disallow="pedestrian tram rail_urban rail rail_electric rail_fast ship" speed="7.59" length="10.65" width="3.50" shape="405.28,370.31,0.16 406.24,368.04,0.12 406.20,365.69,0.09 405.16,363.28,0.05 403.12,360.81"/>
    </edge>
    <edge id=":16_6" function="internal">
        <lane id=":16_6_0" index="0" disallow="pedestrian tram rail_urban rail rail_electric rail_fast ship" speed="17.88" length="15.23" width="3.50" shape="405.28,370.31,0.16 413.10,357.39,0.14"/>
        <lane id=":16_6_1" index="1" disallow="pedestrian tram rail_urban rail rail_electric rail_fast ship" speed="17.88" length="15.23" width="3.50" shape="408.21,372.23,0.16 416.16,359.09,0.14"/>
    </edge>
    <edge id=":17_0" function="internal">
        <lane id=":17_0_0" index="0" disallow="pedestrian tram rail_urban rail rail_electric rail_fast ship" speed="17.88" length="15.23" width="3.50" shape="389.62,407.32,0.14 378.93,418.24,0.10"/>
        <lane id=":17_0_1" index="1" disallow="pedestrian tram rail_urban rail rail_electric rail_fast ship" speed="17.88" length="15.23" width="3.50" shape="387.06,404.93,0.14 376.44,415.77,0.10"/>
    </edge>
    <edge id=":17_2" function="internal">
        <lane id=":17_2_0" index="0" disallow="pedestrian tram rail_urban rail rail_electric rail_fast ship" speed="8.82" length="5.95" width="3.50" shape="387.06,404.93,0.14 383.59,407.46,0.11 381.94,407.66,0.10"/>
    </edge>
    <edge id=":17_8" function="internal">
        <lane id=":17_8_0" index="0" disallow="pedestrian tram rail_urban rail rail_electric rail_fast ship" speed="8.82" length="12.27" width="3.50" shape="381.94,407.66,0.10 379.81,407.91,0.08 375.75,406.27,0.04 371.39,402.54,-0.00"/>
    </edge>
    <edge id=":17_3" function="internal">
        <lane id=":17_3_0" index="0" disallow="pedestrian tram rail_urban rail rail_electric rail_fast ship" speed="6.48" length="9.27" width="3.50" shape="373.93,400.13,-0.00 375.95,401.74,0.04 377.96,402.28,0.07 379.95,401.75,0.10 381.94,400.16,0.14"/>
    </edge>
    <edge id=":17_4" function="internal">
        <lane id=":17_4_0" index="0" disallow="pedestrian tram rail_urban rail rail_electric rail_fast ship" speed="9.02" length="17.78" width="3.50" shape="373.93,400.13,-0.00 377.39,404.60,0.03 378.96,408.69,0.05 378.64,412.42,0.08 376.44,415.77,0.10"/>
    </edge>
    <edge id=":17_5" function="internal">
        <lane id=":17_5_0" index="0" disallow="pedestrian tram rail_urban rail rail_electric rail_fast ship" speed="6.73" length="9.40" width="3.50" shape="371.48,410.84,0.10 372.96,408.82,0.07 373.44,406.76,0.05 372.92,404.67,0.02 371.39,402.54,-0.00"/>
    </edge>
    <edge id=":17_6" function="internal">
        <lane id=":17_6_0" index="0" disallow="pedestrian tram rail_urban rail rail_electric rail_fast ship" speed="17.88" length="15.01" width="3.50" shape="371.48,410.84,0.10 381.94,400.16,0.14"/>
        <lane id=":17_6_1" index="1" disallow="pedestrian tram rail_urban rail rail_electric rail_fast ship" speed="17.88" length="15.01" width="3.50" shape="373.96,413.30,0.10 384.50,402.54,0.14"/>
    </edge>
    <edge id=":18_0" function="internal">
        <lane id=":18_0_0" index="0" disallow="pedestrian tram rail_urban rail rail_electric rail_fast ship" speed="17.88" length="15.86" width="3.50" shape="357.82,437.59,0.15 344.82,446.91,0.15"/>
        <lane id=":18_0_1" index="1" disallow="pedestrian tram rail_urban rail rail_electric rail_fast ship" speed="17.88" length="15.86" width="3.50" shape="355.67,434.84,0.15 342.89,443.99,0.15"/>
    </edge>
    <edge id=":18_2" function="internal">
        <lane id=":18_2_0" index="0" disallow="pedestrian tram rail_urban rail rail_electric rail_fast ship" speed="8.84" length="6.16" width="3.50" shape="355.67,434.84,0.15 351.81,436.82,0.11 349.98,436.76,0.09"/>
    </edge>
    <edge id=":18_8" function="internal">
        <lane id=":18_8_0" index="0" disallow="pedestrian tram rail_urban rail rail_electric rail_fast ship" speed="8.84" length="12.13" width="3.50" shape="349.98,436.76,0.09 347.99,436.69,0.08 344.21,434.45,0.04 340.47,430.10,-0.00"/>
    </edge>
    <edge id=":18_3" function="internal">
        <lane id=":18_3_0" index="0" disallow="pedestrian tram rail_urban rail rail_electric rail_fast ship" speed="6.51" length="9.36" width="3.50" shape="343.36,428.11,-0.00 345.11,430.01,0.04 347.02,430.85,0.07 349.10,430.62,0.10 351.35,429.33,0.15"/>
    </edge>
    <edge id=":18_4" function="internal">
        <lane id=":18_4_0" index="0" disallow="pedestrian tram rail_urban rail rail_electric rail_fast ship" speed="8.92" length="18.04" width="3.50" shape="343.36,428.11,-0.00 346.09,433.13,0.04 346.92,437.44,0.08 345.86,441.06,0.11 342.89,443.99,0.15"/>
    </edge>
    <edge id=":18_5" function="internal">
        <lane id=":18_5_0" index="0" disallow="pedestrian tram rail_urban rail rail_electric rail_fast ship" speed="6.60" length="9.36" width="3.50" shape="339.04,438.14,0.15 340.93,436.46,0.11 341.79,434.55,0.07 341.64,432.43,0.04 340.47,430.10,-0.00"/>
    </edge>
    <edge id=":18_6" function="internal">
        <lane id=":18_6_0" index="0" disallow="pedestrian tram rail_urban rail rail_electric rail_fast ship" speed="17.88" length="15.28" width="3.50" shape="339.04,438.14,0.15 351.35,429.33,0.15"/>