<?xml version="1.0" encoding="UTF-8"?>

<!-- generated on 02/23/21 10:18:00 by Eclipse SUMO netedit Version 1.5.0
<configuration xmlns:xsi="http://www.w3.org/2001/XMLSchema-instance" xsi:noNamespaceSchemaLocation="http://sumo.dlr.de/xsd/netconvertConfiguration.xsd">

    <input>
        <sumo-net-file value="hooder.net.xml"/>
    </input>

    <output>
        <output-file value="hooder.net.xml"/>
    </output>

    <processing>
        <geometry.min-radius.fix.railways value="false"/>
        <geometry.max-grade.fix value="false"/>
        <offset.disable-normalization value="true"/>
        <lefthand value="false"/>
    </processing>

    <junctions>
        <no-turnarounds value="true"/>
        <junctions.corner-detail value="5"/>
        <junctions.limit-turn-speed value="5.5"/>
        <rectangular-lane-cut value="true"/>
    </junctions>

    <pedestrian>
        <walkingareas value="false"/>
    </pedestrian>

    <report>
        <aggregate-warnings value="5"/>
    </report>

</configuration>
-->

<net version="1.3" junctionCornerDetail="5" rectangularLaneCut="true" limitTurnSpeed="5.50" xmlns:xsi="http://www.w3.org/2001/XMLSchema-instance" xsi:noNamespaceSchemaLocation="http://sumo.dlr.de/xsd/net_file.xsd">

    <location netOffset="53.77,57.84" convBoundary="0.00,0.00,521.46,250.48" origBoundary="-53.77,-57.84,467.69,192.64" projParameter="!"/>

    <type id="bidirectional" priority="1" speed="1.39" disallow="pedestrian tram rail_urban rail rail_electric rail_fast ship" width="3.65"/>
    <type id="border" priority="0" speed="1.39" disallow="all" discard="1" width="0.10"/>
    <type id="driving" priority="1" speed="13.89" disallow="pedestrian tram rail_urban rail rail_electric rail_fast ship" width="3.65"/>
    <type id="entry" priority="1" speed="22.22" disallow="pedestrian tram rail_urban rail rail_electric rail_fast ship" width="3.65"/>
    <type id="exit" priority="1" speed="22.22" disallow="pedestrian tram rail_urban rail rail_electric rail_fast ship" width="3.65"/>
    <type id="median" priority="0" speed="1.39" disallow="all" discard="1" width="0.10"/>
    <type id="mwyEntry" priority="1" speed="22.22" allow="private emergency authority army vip passenger hov taxi bus coach delivery truck trailer motorcycle evehicle custom1 custom2" width="3.65"/>
    <type id="mwyExit" priority="1" speed="22.22" allow="private emergency authority army vip passenger hov taxi bus coach delivery truck trailer motorcycle evehicle custom1 custom2" width="3.65"/>
    <type id="none" priority="0" speed="1.39" disallow="all" discard="1" width="1.00"/>
    <type id="offRamp" priority="1" speed="22.22" allow="private emergency authority army vip passenger hov taxi bus coach delivery truck trailer motorcycle evehicle custom1 custom2" width="3.65"/>
    <type id="onRamp" priority="1" speed="22.22" allow="private emergency authority army vip passenger hov taxi bus coach delivery truck trailer motorcycle evehicle custom1 custom2" width="3.65"/>
    <type id="parking" priority="1" speed="1.39" disallow="pedestrian tram rail_urban rail rail_electric rail_fast ship" width="2.50"/>
    <type id="rail" priority="3" speed="33.33" allow="rail_urban rail rail_electric rail_fast" width="3.65"/>
    <type id="restricted" priority="0" speed="13.89" disallow="all" width="3.65"/>
    <type id="roadWorks" priority="0" speed="1.39" allow="authority" width="3.65"/>
    <type id="shoulder" priority="0" speed="1.39" disallow="all" discard="1" width="1.00"/>
    <type id="special1" priority="1" speed="22.22" allow="custom1" discard="1" width="3.65"/>
    <type id="special2" priority="1" speed="22.22" allow="custom2" discard="1" width="3.65"/>
    <type id="special3" priority="1" speed="22.22" allow="custom1 custom2" discard="1" width="3.65"/>
    <type id="stop" priority="1" speed="13.89" disallow="pedestrian tram rail_urban rail rail_electric rail_fast ship" width="3.65"/>
    <type id="tram" priority="2" speed="13.89" allow="tram" width="3.65"/>

    <edge id=":0.begin_0" function="internal">
        <lane id=":0.begin_0_0" index="0" disallow="pedestrian tram rail_urban rail rail_electric rail_fast ship" speed="3.82" length="5.11" width="3.50" shape="0.09,221.77 -1.27,220.96 -1.75,220.11 -1.35,219.21 -0.09,218.27"/>
    </edge>
    <edge id=":106_0" function="internal">
        <lane id=":106_0_0" index="0" disallow="pedestrian tram rail_urban rail rail_electric rail_fast ship" speed="17.88" length="21.20" width="3.50" shape="198.14,173.50 192.15,174.65 187.83,175.59 183.55,176.69 177.68,178.34"/>
        <lane id=":106_0_1" index="1" disallow="pedestrian tram rail_urban rail rail_electric rail_fast ship" speed="17.88" length="21.20" width="3.50" shape="197.49,170.06 191.45,171.22 187.03,172.18 182.64,173.31 176.72,174.97"/>
    </edge>
    <edge id=":106_2" function="internal">
        <lane id=":106_2_0" index="0" disallow="pedestrian tram rail_urban rail rail_electric rail_fast ship" speed="9.57" length="7.49" width="3.50" shape="197.49,170.06 191.79,170.33 190.11,169.73"/>
    </edge>
    <edge id=":106_8" function="internal">
        <lane id=":106_8_0" index="0" disallow="pedestrian tram rail_urban rail rail_electric rail_fast ship" speed="9.57" length="13.12" width="3.50" shape="190.11,169.73 187.38,168.75 184.27,165.31 182.45,160.03"/>
    </edge>
    <edge id=":106_3" function="internal">
        <lane id=":106_3_0" index="0" disallow="pedestrian tram rail_urban rail rail_electric rail_fast ship" speed="6.65" length="9.39" width="3.50" shape="189.31,158.67 190.14,161.06 191.56,162.60 193.58,163.31 196.20,163.18"/>
    </edge>
    <edge id=":106_4" function="internal">
        <lane id=":106_4_0" index="0" disallow="pedestrian tram rail_urban rail rail_electric rail_fast ship" speed="9.81" length="20.26" width="3.50" shape="185.88,159.35 186.18,164.96 184.76,169.43 181.60,172.77 176.72,174.97"/>
    </edge>
    <edge id=":106_5" function="internal">
        <lane id=":106_5_0" index="0" disallow="pedestrian tram rail_urban rail rail_electric rail_fast ship" speed="6.96" length="9.65" width="3.50" shape="174.80,168.24 177.07,167.20 178.53,165.60 179.17,163.43 179.01,160.71"/>
    </edge>
    <edge id=":106_6" function="internal">
        <lane id=":106_6_0" index="0" disallow="pedestrian tram rail_urban rail rail_electric rail_fast ship" speed="17.88" length="21.84" width="3.50" shape="174.80,168.24 180.82,166.56 185.42,165.38 190.06,164.37 196.20,163.18"/>
        <lane id=":106_6_1" index="1" disallow="pedestrian tram rail_urban rail rail_electric rail_fast ship" speed="17.88" length="21.84" width="3.50" shape="175.76,171.61 181.73,169.93 186.22,168.78 190.76,167.80 196.85,166.62"/>
    </edge>
    <edge id=":116_0" function="internal">
        <lane id=":116_0_0" index="0" disallow="pedestrian tram rail_urban rail rail_electric rail_fast ship" speed="17.88" length="22.57" width="3.50" shape="267.77,164.03 245.44,167.98"/>
        <lane id=":116_0_1" index="1" disallow="pedestrian tram rail_urban rail rail_electric rail_fast ship" speed="17.88" length="22.57" width="3.50" shape="267.06,160.60 244.93,164.51"/>
    </edge>
    <edge id=":116_2" function="internal">
        <lane id=":116_2_0" index="0" disallow="pedestrian tram rail_urban rail rail_electric rail_fast ship" speed="9.44" length="7.98" width="3.50" shape="267.06,160.60 261.26,160.97 259.22,160.21"/>
    </edge>
    <edge id=":116_8" function="internal">
        <lane id=":116_8_0" index="0" disallow="pedestrian tram rail_urban rail rail_electric rail_fast ship" speed="9.44" length="13.09" width="3.50" shape="259.22,160.21 256.85,159.34 253.82,155.72 252.19,150.11"/>
    </edge>
    <edge id=":116_3" function="internal">
        <lane id=":116_3_0" index="0" disallow="pedestrian tram rail_urban rail rail_electric rail_fast ship" speed="6.47" length="9.25" width="3.50" shape="259.12,149.12 259.84,151.59 261.16,153.19 263.09,153.91 265.62,153.75"/>
    </edge>
    <edge id=":116_4" function="internal">
        <lane id=":116_4_0" index="0" disallow="pedestrian tram rail_urban rail rail_electric rail_fast ship" speed="9.62" length="20.96" width="3.50" shape="255.65,149.61 255.69,155.49 253.91,159.93 250.33,162.94 244.93,164.51"/>
    </edge>
    <edge id=":116_5" function="internal">
        <lane id=":116_5_0" index="0" disallow="pedestrian tram rail_urban rail rail_electric rail_fast ship" speed="6.73" length="9.68" width="3.50" shape="243.92,157.59 246.35,156.86 247.97,155.45 248.76,153.37 248.72,150.60"/>
    </edge>
    <edge id=":116_6" function="internal">
        <lane id=":116_6_0" index="0" disallow="pedestrian tram rail_urban rail rail_electric rail_fast ship" speed="17.88" length="22.15" width="3.50" shape="243.92,157.59 265.62,153.75"/>
        <lane id=":116_6_1" index="1" disallow="pedestrian tram rail_urban rail rail_electric rail_fast ship" speed="17.88" length="22.15" width="3.50" shape="244.43,161.05 266.34,157.18"/>
    </edge>
    <edge id=":126_0" function="internal">
        <lane id=":126_0_0" index="0" disallow="pedestrian tram rail_urban rail rail_electric rail_fast ship" speed="17.88" length="22.38" width="3.50" shape="355.85,138.89 334.51,145.86"/>
        <lane id=":126_0_1" index="1" disallow="pedestrian tram rail_urban rail rail_electric rail_fast ship" speed="17.88" length="22.38" width="3.50" shape="354.70,135.58 333.50,142.51"/>
    </edge>
    <edge id=":126_2" function="internal">
        <lane id=":126_2_0" index="0" disallow="pedestrian tram rail_urban rail rail_electric rail_fast ship" speed="9.48" length="7.81" width="3.50" shape="354.70,135.58 349.06,136.68 347.05,136.24"/>
    </edge>
    <edge id=":126_8" function="internal">
        <lane id=":126_8_0" index="0" disallow="pedestrian tram rail_urban rail rail_electric rail_fast ship" speed="9.48" length="13.09" width="3.50" shape="347.05,136.24 344.48,135.68 340.97,132.56 338.53,127.33"/>
    </edge>
    <edge id=":126_3" function="internal">
        <lane id=":126_3_0" index="0" disallow="pedestrian tram rail_urban rail rail_electric rail_fast ship" speed="6.53" length="9.27" width="3.50" shape="345.23,125.30 346.31,127.62 347.87,129.01 349.89,129.46 352.39,128.97"/>
    </edge>
    <edge id=":126_4" function="internal">
        <lane id=":126_4_0" index="0" disallow="pedestrian tram rail_urban rail rail_electric rail_fast ship" speed="9.60" length="20.80" width="3.50" shape="341.88,126.32 342.78,132.02 341.68,136.62 338.59,140.12 333.50,142.51"/>
    </edge>
    <edge id=":126_5" function="internal">
        <lane id=":126_5_0" index="0" disallow="pedestrian tram rail_urban rail rail_electric rail_fast ship" speed="6.68" length="9.50" width="3.50" shape="331.47,135.81 333.76,134.72 335.14,133.12 335.61,130.99 335.18,128.35"/>
    </edge>
    <edge id=":126_6" function="internal">
        <lane id=":126_6_0" index="0" disallow="pedestrian tram rail_urban rail rail_electric rail_fast ship" speed="17.88" length="22.08" width="3.50" shape="331.47,135.81 352.39,128.97"/>
        <lane id=":126_6_1" index="1" disallow="pedestrian tram rail_urban rail rail_electric rail_fast ship" speed="17.88" length="22.08" width="3.50" shape="332.48,139.16 353.55,132.28"/>
    </edge>
    <edge id=":13.end_0" function="internal">
        <lane id=":13.end_0_0" index="0" disallow="pedestrian tram rail_urban rail rail_electric rail_fast ship" speed="3.82" length="5.11" width="3.50" shape="511.43,29.33 512.78,30.14 513.26,31.00 512.86,31.89 511.59,32.83"/>
    </edge>
    <edge id=":136_0" function="internal">
        <lane id=":136_0_0" index="0" disallow="pedestrian tram rail_urban rail rail_electric rail_fast ship" speed="17.88" length="22.65" width="3.50" shape="492.96,90.49 471.30,96.81"/>
        <lane id=":136_0_1" index="1" disallow="pedestrian tram rail_urban rail rail_electric rail_fast ship" speed="17.88" length="22.65" width="3.50" shape="492.07,87.11 470.24,93.48"/>
    </edge>
    <edge id=":136_2" function="internal">
        <lane id=":136_2_0" index="0" disallow="pedestrian tram rail_urban rail rail_electric rail_fast ship" speed="9.41" length="7.29" width="3.50" shape="492.07,87.11 486.17,87.79 484.88,87.38"/>
    </edge>
    <edge id=":136_8" function="internal">
        <lane id=":136_8_0" index="0" disallow="pedestrian tram rail_urban rail rail_electric rail_fast ship" speed="9.41" length="14.08" width="3.50" shape="484.88,87.38 481.64,86.36 478.48,82.82 476.68,77.16"/>
    </edge>
    <edge id=":136_3" function="internal">
        <lane id=":136_3_0" index="0" disallow="pedestrian tram rail_urban rail rail_electric rail_fast ship" speed="6.43" length="9.30" width="3.50" shape="483.58,76.01 484.36,78.47 485.74,80.01 487.71,80.64 490.28,80.34"/>
    </edge>
    <edge id=":136_4" function="internal">
        <lane id=":136_4_0" index="0" disallow="pedestrian tram rail_urban rail rail_electric rail_fast ship" speed="10.36" length="21.67" width="3.50" shape="480.13,76.59 480.32,82.52 478.74,87.32 475.38,90.97 470.24,93.48"/>
    </edge>
    <edge id=":136_5" function="internal">
        <lane id=":136_5_0" index="0" disallow="pedestrian tram rail_urban rail rail_electric rail_fast ship" speed="7.70" length="11.54" width="3.50" shape="468.10,86.81 470.78,85.49 472.53,83.53 473.34,80.95 473.22,77.74"/>
    </edge>
    <edge id=":136_6" function="internal">
        <lane id=":136_6_0" index="0" disallow="pedestrian tram rail_urban rail rail_electric rail_fast ship" speed="17.88" length="23.02" width="3.50" shape="468.10,86.81 490.28,80.34"/>
        <lane id=":136_6_1" index="1" disallow="pedestrian tram rail_urban rail rail_electric rail_fast ship" speed="17.88" length="23.02" width="3.50" shape="469.17,90.14 491.17,83.72"/>
    </edge>
    <edge id=":14.begin_0" function="internal">
        <lane id=":14.begin_0_0" index="0" disallow="pedestrian tram rail_urban rail rail_electric rail_fast ship" speed="3.82" length="5.11" width="3.50" shape="50.83,250.20 50.17,251.64 49.38,252.21 48.45,251.92 47.37,250.76"/>
    </edge>
    <edge id=":16.end_0" function="internal">
        <lane id=":16.end_0_0" index="0" disallow="pedestrian tram rail_urban rail rail_electric rail_fast ship" speed="3.82" length="5.11" width="3.50" shape="51.51,19.61 52.37,18.29 53.24,17.84 54.12,18.27 55.01,19.57"/>
    </edge>
    <edge id=":167_0" function="internal">
        <lane id=":167_0_0" index="0" disallow="pedestrian tram rail_urban rail rail_electric rail_fast ship" speed="6.78" length="9.77" width="3.50" shape="469.99,44.59 469.52,41.83 468.37,39.88 466.53,38.75 464.00,38.45"/>
    </edge>
    <edge id=":167_1" function="internal">
        <lane id=":167_1_0" index="0" disallow="pedestrian tram rail_urban rail rail_electric rail_fast ship" speed="17.88" length="23.44" width="3.50" shape="469.99,44.59 469.98,21.01"/>
        <lane id=":167_1_1" index="1" disallow="pedestrian tram rail_urban rail rail_electric rail_fast ship" speed="17.88" length="23.44" width="3.50" shape="473.49,44.45 473.48,21.14"/>
    </edge>
    <edge id=":167_3" function="internal">
        <lane id=":167_3_0" index="0" disallow="pedestrian tram rail_urban rail rail_electric rail_fast ship" speed="9.80" length="21.59" width="3.50" shape="473.49,44.45 474.09,38.58 476.43,34.30 480.51,31.61 486.33,30.50"/>
    </edge>
    <edge id=":167_4" function="internal">
        <lane id=":167_4_0" index="0" disallow="pedestrian tram rail_urban rail rail_electric rail_fast ship" speed="6.96" length="10.35" width="3.50" shape="486.65,37.49 483.86,38.02 481.90,39.31 480.77,41.36 480.49,44.17"/>
    </edge>
    <edge id=":167_5" function="internal">
        <lane id=":167_5_0" index="0" disallow="pedestrian tram rail_urban rail rail_electric rail_fast ship" speed="17.88" length="22.65" width="3.50" shape="486.65,37.49 464.00,38.45"/>
        <lane id=":167_5_1" index="1" disallow="pedestrian tram rail_urban rail rail_electric rail_fast ship" speed="17.88" length="22.65" width="3.50" shape="486.49,34.00 463.88,34.95"/>
    </edge>
    <edge id=":167_7" function="internal">
        <lane id=":167_7_0" index="0" disallow="pedestrian tram rail_urban rail rail_electric rail_fast ship" speed="9.43" length="7.67" width="3.50" shape="486.49,34.00 480.62,33.43 479.08,32.56"/>
    </edge>
    <edge id=":167_16" function="internal">
        <lane id=":167_16_0" index="0" disallow="pedestrian tram rail_urban rail rail_electric rail_fast ship" speed="9.43" length="13.60" width="3.50" shape="479.08,32.56 476.50,31.10 474.12,27.00 473.48,21.14"/>
    </edge>
    <edge id=":167_8" function="internal">
        <lane id=":167_8_0" index="0" disallow="pedestrian tram rail_urban rail rail_electric rail_fast ship" speed="6.45" length="9.30" width="3.50" shape="480.48,21.38 480.75,23.95 481.79,25.74 483.60,26.76 486.16,27.00"/>
    </edge>
    <edge id=":167_9" function="internal">
        <lane id=":167_9_0" index="0" disallow="pedestrian tram rail_urban rail rail_electric rail_fast ship" speed="17.88" length="22.92" width="3.50" shape="480.48,21.38 480.49,44.17"/>
        <lane id=":167_9_1" index="1" disallow="pedestrian tram rail_urban rail rail_electric rail_fast ship" speed="17.88" length="22.92" width="3.50" shape="476.98,21.26 476.99,44.31"/>
    </edge>
    <edge id=":167_11" function="internal">
        <lane id=":167_11_0" index="0" disallow="pedestrian tram rail_urban rail rail_electric rail_fast ship" speed="9.97" length="21.28" width="3.50" shape="476.98,21.26 475.99,27.08 473.47,31.30 469.43,33.92 463.88,34.95"/>
    </edge>
    <edge id=":167_12" function="internal">
        <lane id=":167_12_0" index="0" disallow="pedestrian tram rail_urban rail rail_electric rail_fast ship" speed="7.19" length="10.57" width="3.50" shape="463.63,27.95 466.32,27.44 468.28,26.11 469.50,23.97 469.98,21.01"/>
    </edge>
    <edge id=":167_13" function="internal">
        <lane id=":167_13_0" index="0" disallow="pedestrian tram rail_urban rail rail_electric rail_fast ship" speed="17.88" length="22.58" width="3.50" shape="463.63,27.95 486.16,27.00"/>
        <lane id=":167_13_1" index="1" disallow="pedestrian tram rail_urban rail rail_electric rail_fast ship" speed="17.88" length="22.58" width="3.50" shape="463.75,31.45 486.33,30.50"/>
    </edge>
    <edge id=":167_15" function="internal">
        <lane id=":167_15_0" index="0" disallow="pedestrian tram rail_urban rail rail_electric rail_fast ship" speed="9.67" length="7.27" width="3.50" shape="463.75,31.45 469.34,32.08 470.76,32.91"/>
    </edge>
    <edge id=":167_17" function="internal">
        <lane id=":167_17_0" index="0" disallow="pedestrian tram rail_urban rail rail_electric rail_fast ship" speed="9.67" length="13.75" width="3.50" shape="470.76,32.91 473.41,34.44 475.96,38.51 476.99,44.31"/>
    </edge>
    <edge id=":19.end_0" function="internal">
        <lane id=":19.end_0_0" index="0" disallow="pedestrian tram rail_urban rail rail_electric rail_fast ship" speed="3.82" length="5.11" width="3.50" shape="474.97,-0.16 475.96,-1.39 476.87,-1.74 477.70,-1.23 478.45,0.16"/>
    </edge>
    <edge id=":198_0" function="internal">
        <lane id=":198_0_0" index="0" disallow="pedestrian tram rail_urban rail rail_electric rail_fast ship" speed="6.64" length="9.40" width="3.50" shape="102.54,64.46 101.96,61.91 100.73,60.17 98.84,59.24 96.29,59.10"/>
    </edge>
    <edge id=":198_1" function="internal">
        <lane id=":198_1_0" index="0" disallow="pedestrian tram rail_urban rail rail_electric rail_fast ship" speed="9.54" length="20.77" width="3.50" shape="106.03,64.16 106.35,58.44 108.41,54.23 112.22,51.52 117.78,50.32"/>
    </edge>
    <edge id=":198_2" function="internal">
        <lane id=":198_2_0" index="0" disallow="pedestrian tram rail_urban rail rail_electric rail_fast ship" speed="6.61" length="9.35" width="3.50" shape="118.26,57.31 115.77,57.85 114.07,59.07 113.15,60.98 113.00,63.56"/>
    </edge>
    <edge id=":198_3" function="internal">
        <lane id=":198_3_0" index="0" disallow="pedestrian tram rail_urban rail rail_electric rail_fast ship" speed="17.88" length="22.09" width="3.50" shape="118.26,57.31 96.29,59.10"/>
        <lane id=":198_3_1" index="1" disallow="pedestrian tram rail_urban rail rail_electric rail_fast ship" speed="17.88" length="22.09" width="3.50" shape="118.02,53.81 95.97,55.62"/>
    </edge>
    <edge id=":198_5" function="internal">
        <lane id=":198_5_0" index="0" disallow="pedestrian tram rail_urban rail rail_electric rail_fast ship" speed="17.88" length="22.26" width="3.50" shape="95.31,48.65 117.54,46.83"/>
        <lane id=":198_5_1" index="1" disallow="pedestrian tram rail_urban rail rail_electric rail_fast ship" speed="17.88" length="22.26" width="3.50" shape="95.64,52.14 117.78,50.32"/>
    </edge>
    <edge id=":198_7" function="internal">
        <lane id=":198_7_0" index="0" disallow="pedestrian tram rail_urban rail rail_electric rail_fast ship" speed="9.56" length="7.64" width="3.50" shape="95.64,52.14 101.30,52.42 103.07,53.28"/>
    </edge>
    <edge id=":198_8" function="internal">
        <lane id=":198_8_0" index="0" disallow="pedestrian tram rail_urban rail rail_electric rail_fast ship" speed="9.56" length="13.12" width="3.50" shape="103.07,53.28 105.49,54.47 108.24,58.28 109.52,63.86"/>
    </edge>
    <edge id=":208_0" function="internal">
        <lane id=":208_0_0" index="0" disallow="pedestrian tram rail_urban rail rail_electric rail_fast ship" speed="6.64" length="9.31" width="3.50" shape="174.35,59.22 173.81,56.71 172.60,54.98 170.73,54.02 168.20,53.84"/>
    </edge>
    <edge id=":208_1" function="internal">
        <lane id=":208_1_0" index="0" disallow="pedestrian tram rail_urban rail rail_electric rail_fast ship" speed="9.55" length="20.59" width="3.50" shape="177.84,58.96 178.23,53.32 180.32,49.17 184.12,46.50 189.64,45.31"/>
    </edge>
    <edge id=":208_2" function="internal">
        <lane id=":208_2_0" index="0" disallow="pedestrian tram rail_urban rail rail_electric rail_fast ship" speed="6.61" length="9.27" width="3.50" shape="190.14,52.29 187.65,52.83 185.94,54.03 185.00,55.90 184.83,58.44"/>
    </edge>
    <edge id=":208_3" function="internal">
        <lane id=":208_3_0" index="0" disallow="pedestrian tram rail_urban rail rail_electric rail_fast ship" speed="17.88" length="21.99" width="3.50" shape="190.14,52.29 168.20,53.84"/>
        <lane id=":208_3_1" index="1" disallow="pedestrian tram rail_urban rail rail_electric rail_fast ship" speed="17.88" length="21.99" width="3.50" shape="189.89,48.80 167.95,50.35"/>
    </edge>
    <edge id=":208_5" function="internal">
        <lane id=":208_5_0" index="0" disallow="pedestrian tram rail_urban rail rail_electric rail_fast ship" speed="17.88" length="21.98" width="3.50" shape="167.47,43.36 189.39,41.81"/>
        <lane id=":208_5_1" index="1" disallow="pedestrian tram rail_urban rail rail_electric rail_fast ship" speed="17.88" length="21.98" width="3.50" shape="167.71,46.85 189.64,45.31"/>
    </edge>
    <edge id=":208_7" function="internal">
        <lane id=":208_7_0" index="0" disallow="pedestrian tram rail_urban rail rail_electric rail_fast ship" speed="9.57" length="7.45" width="3.50" shape="167.71,46.85 173.32,47.26 174.95,48.10"/>
    </edge>
    <edge id=":208_8" function="internal">
        <lane id=":208_8_0" index="0" disallow="pedestrian tram rail_urban rail rail_electric rail_fast ship" speed="9.57" length="13.11" width="3.50" shape="174.95,48.10 177.46,49.37 180.13,53.19 181.34,58.70"/>
    </edge>
    <edge id=":218_0" function="internal">
        <lane id=":218_0_0" index="0" disallow="pedestrian tram rail_urban rail rail_electric rail_fast ship" speed="6.51" length="9.29" width="3.50" shape="243.78,54.30 243.36,51.78 242.23,50.03 240.38,49.07 237.83,48.88"/>
    </edge>
    <edge id=":218_1" function="internal">
        <lane id=":218_1_0" index="0" disallow="pedestrian tram rail_urban rail rail_electric rail_fast ship" speed="9.72" length="20.75" width="3.50" shape="247.28,54.22 247.93,48.48 250.16,44.27 253.99,41.60 259.40,40.46"/>
    </edge>
    <edge id=":218_2" function="internal">
        <lane id=":218_2_0" index="0" disallow="pedestrian tram rail_urban rail rail_electric rail_fast ship" speed="6.85" length="9.75" width="3.50" shape="259.81,47.45 257.34,47.99 255.59,49.27 254.57,51.29 254.28,54.06"/>
    </edge>
    <edge id=":218_3" function="internal">
        <lane id=":218_3_0" index="0" disallow="pedestrian tram rail_urban rail rail_electric rail_fast ship" speed="17.88" length="22.06" width="3.50" shape="259.81,47.45 237.83,48.88"/>
        <lane id=":218_3_1" index="1" disallow="pedestrian tram rail_urban rail rail_electric rail_fast ship" speed="17.88" length="22.06" width="3.50" shape="259.61,43.96 237.58,45.39"/>
    </edge>
    <edge id=":218_5" function="internal">
        <lane id=":218_5_0" index="0" disallow="pedestrian tram rail_urban rail rail_electric rail_fast ship" speed="17.88" length="22.14" width="3.50" shape="237.08,38.41 259.20,36.97"/>
        <lane id=":218_5_1" index="1" disallow="pedestrian tram rail_urban rail rail_electric rail_fast ship" speed="17.88" length="22.14" width="3.50" shape="237.33,41.90 259.40,40.46"/>
    </edge>
    <edge id=":218_7" function="internal">
        <lane id=":218_7_0" index="0" disallow="pedestrian tram rail_urban rail rail_electric rail_fast ship" speed="9.48" length="7.64" width="3.50" shape="237.33,41.90 243.10,42.31 244.74,43.17"/>
    </edge>
    <edge id=":218_8" function="internal">
        <lane id=":218_8_0" index="0" disallow="pedestrian tram rail_urban rail rail_electric rail_fast ship" speed="9.48" length="13.34" width="3.50" shape="244.74,43.17 247.26,44.49 249.82,48.44 250.78,54.14"/>
    </edge>
    <edge id=":24_0" function="internal">
        <lane id=":24_0_0" index="0" disallow="pedestrian tram rail_urban rail rail_electric rail_fast ship" speed="7.69" length="11.68" width="3.50" shape="65.53,61.97 62.46,62.66 60.22,64.15 58.81,66.44 58.24,69.54"/>
    </edge>
    <edge id=":24_1" function="internal">
        <lane id=":24_1_0" index="0" disallow="pedestrian tram rail_urban rail rail_electric rail_fast ship" speed="17.88" length="24.25" width="3.50" shape="65.53,61.97 41.24,63.42"/>
        <lane id=":24_1_1" index="1" disallow="pedestrian tram rail_urban rail rail_electric rail_fast ship" speed="17.88" length="24.25" width="3.50" shape="65.25,58.48 41.12,59.92"/>
    </edge>
    <edge id=":24_3" function="internal">
        <lane id=":24_3_0" index="0" disallow="pedestrian tram rail_urban rail rail_electric rail_fast ship" speed="9.43" length="7.90" width="3.50" shape="65.25,58.48 59.37,58.11 57.59,57.19"/>
    </edge>
    <edge id=":24_16" function="internal">
        <lane id=":24_16_0" index="0" disallow="pedestrian tram rail_urban rail rail_electric rail_fast ship" speed="9.43" length="13.36" width="3.50" shape="57.59,57.19 55.17,55.92 52.65,51.91 51.81,46.08"/>
    </edge>
    <edge id=":24_4" function="internal">
        <lane id=":24_4_0" index="0" disallow="pedestrian tram rail_urban rail rail_electric rail_fast ship" speed="6.45" length="9.30" width="3.50" shape="58.81,46.08 59.18,48.63 60.28,50.39 62.12,51.34 64.69,51.51"/>
    </edge>
    <edge id=":24_5" function="internal">
        <lane id=":24_5_0" index="0" disallow="pedestrian tram rail_urban rail rail_electric rail_fast ship" speed="17.88" length="23.39" width="3.50" shape="58.81,46.08 58.24,69.54"/>
        <lane id=":24_5_1" index="1" disallow="pedestrian tram rail_urban rail rail_electric rail_fast ship" speed="17.88" length="23.39" width="3.50" shape="55.31,46.08 54.74,69.38"/>
    </edge>
    <edge id=":24_7" function="internal">
        <lane id=":24_7_0" index="0" disallow="pedestrian tram rail_urban rail rail_electric rail_fast ship" speed="10.08" length="22.42" width="3.50" shape="55.31,46.08 54.42,51.95 51.76,56.21 47.33,58.87 41.12,59.92"/>
    </edge>
    <edge id=":24_8" function="internal">
        <lane id=":24_8_0" index="0" disallow="pedestrian tram rail_urban rail rail_electric rail_fast ship" speed="7.36" length="11.42" width="3.50" shape="40.88,52.92 44.13,52.40 46.45,51.08 47.85,48.98 48.31,46.08"/>
    </edge>
    <edge id=":24_9" function="internal">
        <lane id=":24_9_0" index="0" disallow="pedestrian tram rail_urban rail rail_electric rail_fast ship" speed="17.88" length="23.93" width="3.50" shape="40.88,52.92 64.69,51.51"/>
        <lane id=":24_9_1" index="1" disallow="pedestrian tram rail_urban rail rail_electric rail_fast ship" speed="17.88" length="23.93" width="3.50" shape="41.00,56.42 64.97,55.00"/>
    </edge>
    <edge id=":24_11" function="internal">
        <lane id=":24_11_0" index="0" disallow="pedestrian tram rail_urban rail rail_electric rail_fast ship" speed="9.58" length="7.71" width="3.50" shape="41.00,56.42 47.24,57.04 48.50,57.73"/>
    </edge>
    <edge id=":24_17" function="internal">
        <lane id=":24_17_0" index="0" disallow="pedestrian tram rail_urban rail rail_electric rail_fast ship" speed="9.58" length="14.24" width="3.50" shape="48.50,57.73 51.61,59.41 54.11,63.52 54.74,69.38"/>
    </edge>
    <edge id=":24_12" function="internal">
        <lane id=":24_12_0" index="0" disallow="pedestrian tram rail_urban rail rail_electric rail_fast ship" speed="6.66" length="10.00" width="3.50" shape="47.75,69.07 47.44,66.51 46.26,64.71 44.19,63.68 41.24,63.42"/>
    </edge>
    <edge id=":24_13" function="internal">
        <lane id=":24_13_0" index="0" disallow="pedestrian tram rail_urban rail rail_electric rail_fast ship" speed="17.88" length="23.07" width="3.50" shape="47.75,69.07 48.31,46.08"/>
        <lane id=":24_13_1" index="1" disallow="pedestrian tram rail_urban rail rail_electric rail_fast ship" speed="17.88" length="23.07" width="3.50" shape="51.25,69.23 51.81,46.08"/>
    </edge>
    <edge id=":24_15" function="internal">