<?xml version="1.0" encoding="UTF-8"?>

<!-- generated on 01/28/21 18:02:26 by Eclipse SUMO netconvert Version 1.5.0
<configuration xmlns:xsi="http://www.w3.org/2001/XMLSchema-instance" xsi:noNamespaceSchemaLocation="http://sumo.dlr.de/xsd/netconvertConfiguration.xsd">

    <input>
        <opendrive-files value="long_single_road_2.xodr"/>
    </input>

    <output>
        <output-file value="long_single_road_2.net.xml"/>
    </output>

    <processing>
        <geometry.max-grade.fix value="false"/>
    </processing>

    <tls_building>
        <tls.left-green.time value="0"/>
    </tls_building>

    <junctions>
        <rectangular-lane-cut value="true"/>
    </junctions>

    <report>
        <aggregate-warnings value="5"/>
    </report>

</configuration>
-->

<net version="1.3" junctionCornerDetail="5" rectangularLaneCut="true" limitTurnSpeed="5.50" xmlns:xsi="http://www.w3.org/2001/XMLSchema-instance" xsi:noNamespaceSchemaLocation="http://sumo.dlr.de/xsd/net_file.xsd">

    <location netOffset="885.98,786.59" convBoundary="0.00,0.00,1660.25,1540.86" origBoundary="0.000000,0.000000,0.000000,0.000000" projParameter="+proj=tmerc +lat_0=0 +lon_0=0 +k=1 +x_0=0 +y_0=0 +datum=WGS84 +units=m +geoidgrids=egm96_15.gtx +vunits=m +no_defs "/>

    <type id="bidirectional" priority="1" speed="1.39" disallow="pedestrian tram rail_urban rail rail_electric rail_fast ship" width="3.65"/>
    <type id="border" priority="0" speed="1.39" disallow="all" discard="1" width="0.10"/>
    <type id="driving" priority="1" speed="13.89" disallow="pedestrian tram rail_urban rail rail_electric rail_fast ship" width="3.65"/>
    <type id="entry" priority="1" speed="22.22" disallow="pedestrian tram rail_urban rail rail_electric rail_fast ship" width="3.65"/>
    <type id="exit" priority="1" speed="22.22" disallow="pedestrian tram rail_urban rail rail_electric rail_fast ship" width="3.65"/>
    <type id="median" priority="0" speed="1.39" disallow="all" discard="1" width="0.10"/>
    <type id="mwyEntry" priority="1" speed="22.22" allow="private emergency authority army vip passenger hov taxi bus coach delivery truck trailer motorcycle evehicle custom1 custom2" width="3.65"/>
    <type id="mwyExit" priority="1" speed="22.22" allow="private emergency authority army vip passenger hov taxi bus coach delivery truck trailer motorcycle evehicle custom1 custom2" width="3.65"/>
    <type id="none" priority="0" speed="1.39" disallow="all" discard="1" width="1.00"/>
    <type id="offRamp" priority="1" speed="22.22" allow="private emergency authority army vip passenger hov taxi bus coach delivery truck trailer motorcycle evehicle custom1 custom2" width="3.65"/>
    <type id="onRamp" priority="1" speed="22.22" allow="private emergency authority army vip passenger hov taxi bus coach delivery truck trailer motorcycle evehicle custom1 custom2" width="3.65"/>
    <type id="parking" priority="1" speed="1.39" disallow="pedestrian tram rail_urban rail rail_electric rail_fast ship" width="2.50"/>
    <type id="rail" priority="3" speed="33.33" allow="rail_urban rail rail_electric rail_fast" width="3.65"/>
    <type id="restricted" priority="0" speed="13.89" disallow="all" width="3.65"/>
    <type id="roadWorks" priority="0" speed="1.39" allow="authority" width="3.65"/>
    <type id="shoulder" priority="0" speed="1.39" disallow="all" discard="1" width="1.00"/>
    <type id="special1" priority="1" speed="22.22" allow="custom1" discard="1" width="3.65"/>
    <type id="special2" priority="1" speed="22.22" allow="custom2" discard="1" width="3.65"/>
    <type id="special3" priority="1" speed="22.22" allow="custom1 custom2" discard="1" width="3.65"/>
    <type id="stop" priority="1" speed="13.89" disallow="pedestrian tram rail_urban rail rail_electric rail_fast ship" width="3.65"/>
    <type id="tram" priority="2" speed="13.89" allow="tram" width="3.65"/>

    <edge id=":0.begin_0" function="internal">
        <lane id=":0.begin_0_0" index="0" disallow="pedestrian tram rail_urban rail rail_electric rail_fast ship" speed="3.82" length="5.11" width="3.50" shape="1659.19,-1.40 1660.77,-1.49 1661.64,-1.06 1661.82,-0.09 1661.31,1.40"/>
    </edge>
    <edge id=":0.end_0" function="internal">
        <lane id=":0.end_0_0" index="0" disallow="pedestrian tram rail_urban rail rail_electric rail_fast ship" speed="3.82" length="5.11" width="3.50" shape="-0.40,1083.11 -1.48,1081.96 -1.70,1081.01 -1.08,1080.26 0.40,1079.71"/>
    </edge>

    <edge id="-0.0.00" from="0.begin" to="0.end" priority="1" type="driving" shape="1660.25,0.00 1601.01,44.86 1599.42,46.07 1597.83,47.29 1596.25,48.52 1594.67,49.75 1593.10,50.98 1591.53,52.22 1589.97,53.47 1588.41,54.73 1586.86,55.99 1585.31,57.25 1583.77,58.53 1582.23,59.81 1580.70,61.09 1579.17,62.39 1577.65,63.68 1576.14,64.99 1574.62,66.30 1573.12,67.61 1571.62,68.93 1570.12,70.26 1568.63,71.60 1567.15,72.94 1565.67,74.28 1564.19,75.63 1562.73,76.99 1561.26,78.36 1559.81,79.73 1558.35,81.10 1556.91,82.48 1555.47,83.87 1554.03,85.26 1552.60,86.66 1551.18,88.06 1549.76,89.47 1548.34,90.89 1546.94,92.31 1545.53,93.74 1544.14,95.17 1542.75,96.61 1541.36,98.05 1539.98,99.50 1538.61,100.95 1537.24,102.41 1535.88,103.88 1534.53,105.35 1533.18,106.82 1531.83,108.31 1530.50,109.79 1529.17,111.28 1527.84,112.78 1526.52,114.28 1525.21,115.79 1523.90,117.31 1522.60,118.82 1521.30,120.35 1520.01,121.88 1518.73,123.41 1517.45,124.95 1516.18,126.49 1514.92,128.04 1513.66,129.60 1512.41,131.16 1511.16,132.72 1509.92,134.29 1508.69,135.87 1507.46,137.45 1506.24,139.03 1505.02,140.62 1503.82,142.21 1502.61,143.81 1501.42,145.41 1500.23,147.02 1499.05,148.64 1497.87,150.25 1496.70,151.88 1495.54,153.50 1494.38,155.13 1493.23,156.77 1492.09,158.41 1490.95,160.06 1489.82,161.71 1488.70,163.36 1487.58,165.02 1486.47,166.68 1485.37,168.35 1484.27,170.02 1483.18,171.70 1482.10,173.38 1481.02,175.07 1479.95,176.76 1478.88,178.45 1477.83,180.15 1476.78,181.85 1475.74,183.56 1474.70,185.27 1473.67,186.98 1472.65,188.70 1471.63,190.42 1470.62,192.15 1469.62,193.88 1468.63,195.62 1467.64,197.36 1466.66,199.10 1465.68,200.85 1464.72,202.60 1463.76,204.35 1462.80,206.11 1461.86,207.87 1460.92,209.64 1459.99,211.41 1459.06,213.18 1458.15,214.96 1457.24,216.74 1456.33,218.52 1455.44,220.31 1454.55,222.10 1453.66,223.90 1452.79,225.70 1451.92,227.50 1451.06,229.30 1450.21,231.11 1449.36,232.93 1448.53,234.74 1447.69,236.56 1446.87,238.38 1446.05,240.21 1445.24,242.04 1444.44,243.87 1443.65,245.71 1442.86,247.54 1442.08,249.39 1441.31,251.23 1440.54,253.08 1439.78,254.93 1439.03,256.78 1438.29,258.64 1437.56,260.50 1436.83,262.36 1436.11,264.23 1435.39,266.10 1434.69,267.97 1433.99,269.84 1433.30,271.72 1432.62,273.60 1431.94,275.48 1431.27,277.37 1430.61,279.25 1429.96,281.14 1429.31,283.04 1428.68,284.93 1428.05,286.83 1427.42,288.73 1426.81,290.63 1426.20,292.54 1425.60,294.45 1425.01,296.36 1424.42,298.27 1423.85,300.19 1423.28,302.10 1422.72,304.02 1422.16,305.94 1421.62,307.87 1421.08,309.79 1420.55,311.72 1420.02,313.65 1419.51,315.59 1419.00,317.52 1418.50,319.46 1418.01,321.40 1417.52,323.34 1417.05,325.28 1416.58,327.22 1416.12,329.17 1415.66,331.12 1415.22,333.07 1414.78,335.02 1414.35,336.97 1413.93,338.93 1413.51,340.88 1413.11,342.84 1412.71,344.80 1412.32,346.76 1411.94,348.73 1411.56,350.69 1411.19,352.66 1410.84,354.62 1410.48,356.59 1410.14,358.56 1409.80,360.53 1409.48,362.51 1409.16,364.48 1408.85,366.46 1408.54,368.43 1408.24,370.41 1407.96,372.39 1407.68,374.37 1407.40,376.35 1407.14,378.33 1406.88,380.32 1406.63,382.30 1406.39,384.29 1406.16,386.27 1405.94,388.26 1405.72,390.25 1405.51,392.24 1405.31,394.23 1405.12,396.22 1404.93,398.21 1404.76,400.20 1404.59,402.20 1404.43,404.19 1404.27,406.18 1404.13,408.18 1403.99,410.17 1403.86,412.17 1403.74,414.17 1403.63,416.16 1403.52,418.16 1403.42,420.16 1403.33,422.16 1403.25,424.15 1403.18,426.15 1403.12,428.15 1403.06,430.15 1403.01,432.15 1402.97,434.15 1402.93,436.15 1402.91,438.15 1402.89,440.15 1402.88,442.15 1402.88,444.15 1402.89,446.15 1402.90,448.15 1402.93,450.15 1402.96,452.15 1403.00,454.15 1403.04,456.15 1403.10,458.15 1403.16,460.15 1403.23,462.14 1403.31,464.14 1403.40,466.14 1403.49,468.14 1403.59,470.14 1403.70,472.13 1403.82,474.13 1403.95,476.13 1404.08,478.12 1404.23,480.12 1404.38,482.11 1404.54,484.10 1404.70,486.10 1404.88,488.09 1405.06,490.08 1405.25,492.07 1405.45,494.06 1405.66,496.05 1405.87,498.04 1406.09,500.03 1406.32,502.01 1406.56,504.00 1406.81,505.99 1407.06,507.97 1407.32,509.95 1407.59,511.93 1407.87,513.91 1408.16,515.89 1408.45,517.87 1408.75,519.85 1409.06,521.82 1409.38,523.80 1409.70,525.77 1410.04,527.74 1410.38,529.72 1410.73,531.68 1411.08,533.65 1411.45,535.62 1411.82,537.58 1412.20,539.55 1412.59,541.51 1412.99,543.47 1413.39,545.43 1413.80,547.39 1414.22,549.34 1414.65,551.30 1415.08,553.25 1415.53,555.20 1415.98,557.15 1416.44,559.09 1416.90,561.04 1417.38,562.98 1417.86,564.92 1418.35,566.86 1418.85,568.80 1419.35,570.73 1419.87,572.67 1420.39,574.60 1420.91,576.53 1421.45,578.45 1421.99,580.38 1422.55,582.30 1423.10,584.22 1423.67,586.14 1424.25,588.05 1424.83,589.97 1425.42,591.88 1426.02,593.79 1426.62,595.69 1427.23,597.60 1427.85,599.50 1428.48,601.40 1429.12,603.29 1429.76,605.19 1430.41,607.08 1431.07,608.97 1431.74,610.85 1432.41,612.74 1433.09,614.62 1433.78,616.49 1434.47,618.37 1435.18,620.24 1435.89,622.11 1436.61,623.98 1437.33,625.84 1438.07,627.70 1438.81,629.56 1439.55,631.41 1440.31,633.27 1441.07,635.12 1441.84,636.96 1442.62,638.80 1443.41,640.64 1444.20,642.48 1445.00,644.31 1445.81,646.14 1446.62,647.97 1447.44,649.79 1448.27,651.61 1449.11,653.43 1449.95,655.24 1450.80,657.05 1451.66,658.86 1452.52,660.66 1453.40,662.46 1454.28,664.26 1455.16,666.05 1456.06,667.84 1456.96,669.63 1457.87,671.41 1458.78,673.19 1459.70,674.96 1460.63,676.73 1461.57,678.50 1462.51,680.26 1463.47,682.02 1464.42,683.78 1465.39,685.53 1466.36,687.28 1467.34,689.02 1468.32,690.76 1469.32,692.50 1470.32,694.23 1471.32,695.96 1472.34,697.68 1473.36,699.40 1474.38,701.12 1475.42,702.83 1476.46,704.54 1477.51,706.24 1478.56,707.94 1479.62,709.64 1480.69,711.33 1481.77,713.01 1482.85,714.70 1483.94,716.37 1485.03,718.05 1486.13,719.72 1492.82,729.80 1493.92,731.47 1495.01,733.14 1496.10,734.82 1497.18,736.50 1498.26,738.19 1499.32,739.88 1500.38,741.58 1501.43,743.28 1502.48,744.98 1503.52,746.69 1504.55,748.41 1505.57,750.13 1506.59,751.85 1507.60,753.57 1508.60,755.30 1509.60,757.04 1510.59,758.78 1511.57,760.52 1512.54,762.27 1513.51,764.02 1514.46,765.78 1515.42,767.53 1516.36,769.30 1517.30,771.06 1518.23,772.84 1519.15,774.61 1520.06,776.39 1520.97,778.17 1521.87,779.96 1522.76,781.75 1523.65,783.54 1524.52,785.34 1525.39,787.14 1526.26,788.94 1527.11,790.75 1527.96,792.56 1528.80,794.38 1529.63,796.20 1530.46,798.02 1531.27,799.84 1532.08,801.67 1532.88,803.51 1533.68,805.34 1534.46,807.18 1535.24,809.02 1536.01,810.87 1536.78,812.72 1537.53,814.57 1538.28,816.42 1539.02,818.28 1539.75,820.14 1540.48,822.01 1541.19,823.87 1541.90,825.74 1542.61,827.62 1543.30,829.49 1543.98,831.37 1544.66,833.25 1545.33,835.14 1545.99,837.02 1546.65,838.91 1547.29,840.81 1547.93,842.70 1548.56,844.60 1549.19,846.50 1549.80,848.40 1550.41,850.31 1551.01,852.22 1551.60,854.13 1552.18,856.04 1552.75,857.96 1553.32,859.88 1553.88,861.80 1554.43,863.72 1554.97,865.64 1555.51,867.57 1556.04,869.50 1556.55,871.43 1557.07,873.37 1557.57,875.30 1558.06,877.24 1558.55,879.18 1559.03,881.12 1559.50,883.07 1559.96,885.01 1560.41,886.96 1560.86,888.91 1561.30,890.86 1561.73,892.81 1562.15,894.77 1562.56,896.73 1562.97,898.68 1563.36,900.64 1563.75,902.61 1564.13,904.57 1564.51,906.53 1564.87,908.50 1565.23,910.47 1565.57,912.44 1565.91,914.41 1566.24,916.38 1566.57,918.36 1566.88,920.33 1567.19,922.31 1567.49,924.28 1567.78,926.26 1568.06,928.24 1568.33,930.22 1568.60,932.21 1568.86,934.19 1569.11,936.17 1569.35,938.16 1569.58,940.15 1569.80,942.13 1570.02,944.12 1570.23,946.11 1570.43,948.10 1570.62,950.09 1570.80,952.08 1570.97,954.08 1571.14,956.07 1571.30,958.06 1571.45,960.06 1571.59,962.05 1571.72,964.05 1571.84,966.04 1571.96,968.04 1572.07,970.04 1572.17,972.04 1572.26,974.03 1572.34,976.03 1572.42,978.03 1572.48,980.03 1572.54,982.03 1572.59,984.03 1572.63,986.03 1572.66,988.03 1572.69,990.03 1572.70,992.03 1572.71,994.03 1572.71,996.03 1572.70,998.03 1572.68,1000.03 1572.66,1002.03 1572.63,1004.03 1572.58,1006.03 1572.53,1008.03 1572.47,1010.02 1572.41,1012.02 1572.33,1014.02 1572.25,1016.02 1572.15,1018.02 1572.05,1020.02 1571.94,1022.01 1571.83,1024.01 1571.70,1026.01 1571.57,1028.00 1571.43,1030.00 1571.28,1031.99 1571.12,1033.98 1570.95,1035.98 1570.77,1037.97 1570.59,1039.96 1570.40,1041.95 1570.20,1043.94 1569.99,1045.93 1569.77,1047.92 1569.55,1049.91 1569.31,1051.89 1569.07,1053.88 1568.82,1055.86 1568.56,1057.84 1568.30,1059.83 1568.02,1061.81 1567.74,1063.79 1567.45,1065.77 1567.15,1067.74 1566.84,1069.72 1566.52,1071.70 1566.20,1073.67 1565.87,1075.64 1565.53,1077.61 1565.18,1079.58 1564.82,1081.55 1564.45,1083.52 1564.08,1085.48 1563.70,1087.44 1563.31,1089.40 1562.91,1091.36 1562.50,1093.32 1562.09,1095.28 1561.67,1097.23 1561.24,1099.19 1560.80,1101.14 1560.35,1103.09 1559.90,1105.04 1559.43,1106.98 1558.96,1108.92 1558.48,1110.87 1557.99,1112.81 1557.50,1114.74 1556.99,1116.68 1556.48,1118.61 1555.96,1120.54 1555.44,1122.47 1554.90,1124.40 1554.36,1126.32 1553.80,1128.25 1553.24,1130.17 1552.68,1132.08 1552.10,1134.00 1551.52,1135.91 1550.92,1137.82 1550.32,1139.73 1549.72,1141.64 1549.10,1143.54 1548.48,1145.44 1547.84,1147.34 1547.21,1149.23 1546.56,1151.12 1545.90,1153.01 1545.24,1154.90 1544.57,1156.78 1543.89,1158.67 1543.20,1160.54 1542.51,1162.42 1541.81,1164.29 1541.10,1166.16 1540.38,1168.03 1539.65,1169.89 1538.92,1171.75 1538.18,1173.61 1537.43,1175.47 1536.67,1177.32 1535.91,1179.16 1535.14,1181.01 1534.36,1182.85 1533.57,1184.69 1532.77,1186.53 1531.97,1188.36 1531.16,1190.19 1530.34,1192.01 1529.52,1193.83 1528.68,1195.65 1527.84,1197.47 1526.99,1199.28 1526.14,1201.08 1525.27,1202.89 1524.40,1204.69 1523.52,1206.49 1522.64,1208.28 1521.75,1210.07 1520.84,1211.85 1519.94,1213.64 1519.02,1215.41 1518.10,1217.19 1517.17,1218.96 1516.23,1220.72 1515.28,1222.49 1514.33,1224.25 1513.37,1226.00 1512.40,1227.75 1511.43,1229.50 1510.45,1231.24 1509.46,1232.98 1508.46,1234.71 1507.46,1236.44 1506.45,1238.17 1505.43,1239.89 1504.41,1241.61 1503.37,1243.32 1502.34,1245.03 1501.29,1246.73 1500.24,1248.43 1499.17,1250.13 1498.11,1251.82 1497.03,1253.51 1495.95,1255.19 1494.86,1256.87 1493.77,1258.54 1492.66,1260.21 1491.55,1261.87 1490.44,1263.53 1489.31,1265.19 1488.18,1266.84 1487.05,1268.48 1485.90,1270.12 1484.75,1271.76 1483.59,1273.39 1482.43,1275.01 1481.26,1276.64 1480.08,1278.25 1478.90,1279.86 1477.70,1281.47 1476.51,1283.07 1475.30,1284.67 1474.09,1286.26 1472.87,1287.85 1471.65,1289.43 1470.42,1291.00 1469.18,1292.57 1467.93,1294.14 1466.68,1295.70 1465.43,1297.26 1464.16,1298.81 1462.89,1300.35 1461.61,1301.89 1460.33,1303.42 1459.04,1304.95 1457.75,1306.48 1456.44,1307.99 1455.14,1309.51 1453.82,1311.01 1452.50,1312.52 1451.17,1314.01 1449.84,1315.50 1448.50,1316.99 1447.15,1318.47 1445.80,1319.94 1444.44,1321.41 1443.08,1322.87 1441.71,1324.33 1440.33,1325.78 1438.95,1327.22 1437.56,1328.66 1436.17,1330.10 1434.77,1331.52 1433.36,1332.95 1431.95,1334.36 1430.53,1335.77 1429.10,1337.18 1427.67,1338.58 1426.24,1339.97 1424.80,1341.35 1423.35,1342.73 1421.90,1344.11 1420.44,1345.48 1418.97,1346.84 1417.50,1348.19 1416.03,1349.54 1414.55,1350.89 1413.06,1352.23 1411.57,1353.56 1410.07,1354.88 1408.57,1356.20 1407.06,1357.51 1405.54,1358.82 1404.02,1360.12 1402.50,1361.41 1400.97,1362.70 1399.43,1363.98 1397.89,1365.26 1396.34,1366.52 1394.79,1367.78 1393.23,1369.04 1391.67,1370.29 1390.10,1371.53 1388.53,1372.77 1386.95,1373.99 1385.37,1375.22 1383.78,1376.43 1382.19,1377.64 1380.59,1378.84 1378.99,1380.04 1377.38,1381.23 1375.76,1382.41 1374.15,1383.59 1372.52,1384.75 1370.90,1385.92 1369.26,1387.07 1367.63,1388.22 1367.29,1388.45 1250.87,1469.59 1249.23,1470.73 1247.58,1471.86 1245.92,1472.99 1244.26,1474.10 1242.60,1475.21 1240.92,1476.31 1239.25,1477.40 1237.56,1478.48 1235.88,1479.55 1234.18,1480.61 1232.48,1481.67 1230.78,1482.71 1229.07,1483.75 1227.35,1484.78 1225.63,1485.80 1223.91,1486.81 1222.18,1487.82 1220.44,1488.81 1218.70,1489.80 1216.96,1490.77 1215.21,1491.74 1213.45,1492.70 1211.69,1493.65 1209.93,1494.59 1208.16,1495.53 1206.39,1496.45 1204.61,1497.37 1202.83,1498.27 1201.04,1499.17 1199.25,1500.06 1197.45,1500.94 1195.65,1501.81 1193.84,1502.67 1192.03,1503.52 1190.22,1504.36 1188.40,1505.19 1186.58,1506.02 1184.75,1506.83 1182.92,1507.64 1181.09,1508.43 1179.25,1509.22 1177.41,1510.00 1175.56,1510.77 1173.71,1511.53 1171.86,1512.28 1170.00,1513.02 1168.14,1513.75 1166.27,1514.47 1164.40,1515.18 1162.53,1515.89 1160.65,1516.58 1158.78,1517.26 1156.89,1517.94 1155.01,1518.60 1153.12,1519.26 1151.22,1519.91 1149.33,1520.54 1147.43,1521.17 1145.53,1521.79 1143.62,1522.40 1141.71,1522.99 1139.80,1523.58 1137.89,1524.16 1135.97,1524.73 1134.05,1525.29 1132.13,1525.84 1130.20,1526.38 1128.27,1526.91 1126.34,1527.43 1124.41,1527.94 1122.47,1528.44 1120.53,1528.94 1118.59,1529.42 1116.65,1529.89 1114.70,1530.35 1112.75,1530.80 1110.80,1531.25 1108.85,1531.68 1106.90,1532.10 1104.94,1532.51 1102.98,1532.92 1101.02,1533.31 1099.06,1533.69 1097.09,1534.07 1095.13,1534.43 1093.16,1534.78 1091.19,1535.13 1089.21,1535.46 1087.24,1535.79 1085.27,1536.10 1083.29,1536.40 1081.31,1536.70 1079.33,1536.98 1077.35,1537.26 1075.37,1537.52 1073.38,1537.77 1071.40,1538.02 1069.41,1538.25 1067.42,1538.48 1065.44,1538.69 1063.45,1538.89 1061.46,1539.09 1059.46,1539.27 1057.47,1539.44 1055.48,1539.61 1053.48,1539.76 1051.49,1539.91 1049.49,1540.04 1047.50,1540.16 1045.50,1540.28 1043.50,1540.38 1041.51,1540.47 1039.51,1540.56 1037.51,1540.63 1035.51,1540.69 1033.51,1540.75 1031.51,1540.79 1029.51,1540.82 1027.51,1540.84 1025.51,1540.86 1023.51,1540.86 1021.51,1540.85 1019.51,1540.84 1017.51,1540.81 1015.51,1540.77 1013.51,1540.72 1011.51,1540.66 1009.52,1540.60 1007.52,1540.52 1005.52,1540.43 1003.52,1540.33 1001.52,1540.22 999.53,1540.11 997.53,1539.98 995.54,1539.84 993.54,1539.69 991.55,1539.53 989.56,1539.36 987.56,1539.19 985.57,1539.00 983.58,1538.80 981.59,1538.59 979.61,1538.37 977.62,1538.14 975.63,1537.90 973.65,1537.66 971.66,1537.40 969.68,1537.13 967.70,1536.85 965.72,1536.56 963.75,1536.26 961.77,1535.95 959.80,1535.63 957.82,1535.31 955.85,1534.97 953.88,1534.62 951.91,1534.26 949.95,1533.89 947.98,1533.51 946.02,1533.13 944.06,1532.73 942.10,1532.32 940.15,1531.90 938.19,1531.48 936.24,1531.04 934.29,1530.59 932.35,1530.13 930.40,1529.67 928.46,1529.19 926.52,1528.70 924.58,1528.21 922.65,1527.70 920.71,1527.19 918.79,1526.66 916.86,1526.13 914.93,1525.58 913.01,1525.03 911.09,1524.46 909.18,1523.89 907.26,1523.31 905.35,1522.71 903.45,1522.11 901.54,1521.50 899.64,1520.88 897.74,1520.24 895.85,1519.60 893.96,1518.95 892.07,1518.29 890.19,1517.62 888.31,1516.94 886.43,1516.26 884.55,1515.56 882.68,1514.85 880.82,1514.13 878.95,1513.41 877.09,1512.67 875.24,1511.93 873.38,1511.17 871.54,1510.41 869.69,1509.63 867.85,1508.85 866.01,1508.06 864.18,1507.26 862.35,1506.45 860.53,1505.63 858.71,1504.80 856.89,1503.96 855.08,1503.12 853.27,1502.26 851.47,1501.40 849.67,1500.52 847.88,1499.64 846.09,1498.75 844.30,1497.85 842.52,1496.94 840.74,1496.02 838.97,1495.09 837.20,1494.15 835.44,1493.21 833.68,1492.25 831.93,1491.29 830.18,1490.32 828.44,1489.33 826.70,1488.34 824.97,1487.35 823.24,1486.34 821.52,1485.32 819.80,1484.30 818.09,1483.26 816.38,1482.22 814.68,1481.17 812.99,1480.11 811.29,1479.04 809.61,1477.97 807.93,1476.88 806.25,1475.79 804.58,1474.69 802.92,1473.58 801.26,1472.46 799.61,1471.33 797.96,1470.20 796.32,1469.06 794.69,1467.90 793.06,1466.74 791.43,1465.58 789.82,1464.40 788.21,1463.22 786.60,1462.02 785.00,1460.82 783.41,1459.61 781.82,1458.40 780.24,1457.17 778.66,1455.94 777.09,1454.70 775.53,1453.45 773.97,1452.20 772.43,1450.93 770.88,1449.66 769.34,1448.38 767.81,1447.09 766.29,1445.80 764.77,1444.49 763.26,1443.18 761.76,1441.87 760.26,1440.54 758.77,1439.21 757.28,1437.87 755.81,1436.52 754.34,1435.16 752.87,1433.80 751.41,1432.43 749.96,1431.05 748.52,1429.67 747.97,1429.13 612.36,1297.84 610.92,1296.45 609.48,1295.07 608.03,1293.69 606.57,1292.32 605.11,1290.96 603.64,1289.60 602.17,1288.24 600.69,1286.90 599.21,1285.56 597.72,1284.22 596.23,1282.89 594.73,1281.57 593.22,1280.25 591.71,1278.94 590.20,1277.63 588.68,1276.33 587.15,1275.04 585.62,1273.75 584.09,1272.47 582.54,1271.20 581.00,1269.93 579.45,1268.66 577.89,1267.41 576.33,1266.16 574.76,1264.91 573.19,1263.68 571.62,1262.44 570.04,1261.22 568.45,1260.00 566.86,1258.79 565.26,1257.58 563.66,1256.38 562.06,1255.19 560.45,1254.00 558.83,1252.82 557.21,1251.65 555.59,1250.48 553.96,1249.32 552.33,1248.17 550.69,1247.02 549.05,1245.88 547.40,1244.74 545.75,1243.61 544.09,1242.49 542.43,1241.38 540.77,1240.27 539.10,1239.17 537.43,1238.07 535.75,1236.99 534.06,1235.90 532.38,1234.83 530.69,1233.76 528.99,1232.70 527.29,1231.65 525.59,1230.60 523.88,1229.56 522.17,1228.52 520.45,1227.50 518.73,1226.48 517.01,1225.46 515.28,1224.46 513.55,1223.46 511.81,1222.47 510.07,1221.48 508.33,1220.50 506.58,1219.53 504.83,1218.57 503.07,1217.61 501.31,1216.66 499.55,1215.71 497.78,1214.78 496.01,1213.85 494.23,1212.93 492.46,1212.01 490.67,1211.10 488.89,1210.20 487.10,1209.31 485.31,1208.42 483.51,1207.54 481.71,1206.67 479.91,1205.81 478.10,1204.95 476.29,1204.10 474.48,1203.25 472.66,1202.42 470.84,1201.59 469.02,1200.77 467.19,1199.95 465.36,1199.15 463.53,1198.35 461.69,1197.56 459.85,1196.77 458.01,1195.99 456.16,1195.22 454.31,1194.46 452.46,1193.71 450.61,1192.96 448.75,1192.22 446.89,1191.48 445.02,1190.76 443.16,1190.04 441.29,1189.33 439.41,1188.63 437.54,1187.93 435.66,1187.24 433.78,1186.56 431.90,1185.89 430.01,1185.22 428.12,1184.57 426.23,1183.92 424.34,1183.27 422.44,1182.64 420.54,1182.01 418.64,1181.39 416.74,1180.78 414.83,1180.17 412.92,1179.57 411.01,1178.98 409.10,1178.40 407.18,1177.83 405.26,1177.26 403.34,1176.70 401.42,1176.15 399.50,1175.61 397.57,1175.07 395.64,1174.54 393.71,1174.02 391.78,1173.51 389.84,1173.01 387.90,1172.51 385.96,1172.02 384.02,1171.54 382.08,1171.06 380.13,1170.60 378.77,1170.28 0.00,1081.41">