<?xml version="1.0" encoding="UTF-8"?>

<!-- generated on 02/23/21 10:18:32 by Eclipse SUMO netedit Version 1.5.0
<configuration xmlns:xsi="http://www.w3.org/2001/XMLSchema-instance" xsi:noNamespaceSchemaLocation="http://sumo.dlr.de/xsd/netconvertConfiguration.xsd">

    <input>
        <sumo-net-file value="Town04.net.xml"/>
    </input>

    <output>
        <output-file value="Town04.net.xml"/>
    </output>

    <processing>
        <geometry.min-radius.fix.railways value="false"/>
        <geometry.max-grade.fix value="false"/>
        <offset.disable-normalization value="true"/>
        <lefthand value="false"/>
    </processing>

    <junctions>
        <no-turnarounds value="true"/>
        <junctions.corner-detail value="5"/>
        <junctions.limit-turn-speed value="5.5"/>
        <rectangular-lane-cut value="true"/>
    </junctions>

    <pedestrian>
        <walkingareas value="false"/>
    </pedestrian>

    <report>
        <aggregate-warnings value="5"/>
    </report>

</configuration>
-->

<net version="1.3" junctionCornerDetail="5" rectangularLaneCut="true" limitTurnSpeed="5.50" xmlns:xsi="http://www.w3.org/2001/XMLSchema-instance" xsi:noNamespaceSchemaLocation="http://sumo.dlr.de/xsd/net_file.xsd">

    <location netOffset="503.02,423.76" convBoundary="0.00,0.00,899.28,804.15" origBoundary="-499.52,-420.26,409.23,380.40" projParameter="!"/>

    <type id="bidirectional" priority="1" speed="1.39" disallow="pedestrian tram rail_urban rail rail_electric rail_fast ship" width="3.65"/>
    <type id="border" priority="0" speed="1.39" disallow="all" discard="1" width="0.10"/>
    <type id="driving" priority="1" speed="13.89" disallow="pedestrian tram rail_urban rail rail_electric rail_fast ship" width="3.65"/>
    <type id="entry" priority="1" speed="22.22" disallow="pedestrian tram rail_urban rail rail_electric rail_fast ship" width="3.65"/>
    <type id="exit" priority="1" speed="22.22" disallow="pedestrian tram rail_urban rail rail_electric rail_fast ship" width="3.65"/>
    <type id="median" priority="0" speed="1.39" disallow="all" discard="1" width="0.10"/>
    <type id="mwyEntry" priority="1" speed="22.22" allow="private emergency authority army vip passenger hov taxi bus coach delivery truck trailer motorcycle evehicle custom1 custom2" width="3.65"/>
    <type id="mwyExit" priority="1" speed="22.22" allow="private emergency authority army vip passenger hov taxi bus coach delivery truck trailer motorcycle evehicle custom1 custom2" width="3.65"/>
    <type id="none" priority="0" speed="1.39" disallow="all" discard="1" width="1.00"/>
    <type id="offRamp" priority="1" speed="22.22" allow="private emergency authority army vip passenger hov taxi bus coach delivery truck trailer motorcycle evehicle custom1 custom2" width="3.65"/>
    <type id="onRamp" priority="1" speed="22.22" allow="private emergency authority army vip passenger hov taxi bus coach delivery truck trailer motorcycle evehicle custom1 custom2" width="3.65"/>
    <type id="parking" priority="1" speed="1.39" disallow="pedestrian tram rail_urban rail rail_electric rail_fast ship" width="2.50"/>
    <type id="rail" priority="3" speed="33.33" allow="rail_urban rail rail_electric rail_fast" width="3.65"/>
    <type id="restricted" priority="0" speed="13.89" disallow="all" width="3.65"/>
    <type id="roadWorks" priority="0" speed="1.39" allow="authority" width="3.65"/>
    <type id="shoulder" priority="0" speed="1.39" disallow="all" discard="1" width="1.00"/>
    <type id="special1" priority="1" speed="22.22" allow="custom1" discard="1" width="3.65"/>
    <type id="special2" priority="1" speed="22.22" allow="custom2" discard="1" width="3.65"/>
    <type id="special3" priority="1" speed="22.22" allow="custom1 custom2" discard="1" width="3.65"/>
    <type id="stop" priority="1" speed="13.89" disallow="pedestrian tram rail_urban rail rail_electric rail_fast ship" width="3.65"/>
    <type id="tram" priority="2" speed="13.89" allow="tram" width="3.65"/>

    <edge id=":1012_0" function="internal">
        <lane id=":1012_0_0" index="0" disallow="pedestrian tram rail_urban rail rail_electric rail_fast ship" speed="13.89" length="26.67" width="3.50" shape="883.17,445.09 882.08,438.37 880.57,433.83 877.85,429.90 873.13,424.98"/>
        <lane id=":1012_0_1" index="1" disallow="pedestrian tram rail_urban rail rail_electric rail_fast ship" speed="13.89" length="26.67" width="3.50" shape="886.64,444.62 885.44,437.22 883.78,432.24 880.79,427.91 875.60,422.50"/>
        <lane id=":1012_0_2" index="2" disallow="pedestrian tram rail_urban rail rail_electric rail_fast ship" speed="13.89" length="26.67" width="3.50" shape="890.10,444.15 888.80,436.08 886.99,430.64 883.72,425.92 878.06,420.02"/>
        <lane id=":1012_0_3" index="3" disallow="pedestrian tram rail_urban rail rail_electric rail_fast ship" speed="13.89" length="26.67" width="3.50" shape="893.57,443.68 892.16,434.94 890.20,429.04 886.66,423.93 880.53,417.53"/>
    </edge>
    <edge id=":1012_4" function="internal">
        <lane id=":1012_4_0" index="0" disallow="pedestrian tram rail_urban rail rail_electric rail_fast ship" speed="13.89" length="43.57" width="3.50" shape="904.46,398.30 905.25,406.47 905.57,416.31 906.09,428.03 907.45,441.80"/>
        <lane id=":1012_4_1" index="1" disallow="pedestrian tram rail_urban rail rail_electric rail_fast ship" speed="13.89" length="43.57" width="3.50" shape="901.01,398.88 901.80,407.03 902.11,416.84 902.62,428.52 903.98,442.27"/>
    </edge>
    <edge id=":1012_6" function="internal">
        <lane id=":1012_6_0" index="0" disallow="pedestrian tram rail_urban rail rail_electric rail_fast ship" speed="13.89" length="35.96" width="3.50" shape="890.39,407.60 898.42,415.95 903.05,422.64 905.61,430.36 907.45,441.80"/>
        <lane id=":1012_6_1" index="1" disallow="pedestrian tram rail_urban rail rail_electric rail_fast ship" speed="13.89" length="35.96" width="3.50" shape="887.93,410.08 895.48,417.95 899.84,424.24 902.25,431.50 903.98,442.27"/>
        <lane id=":1012_6_2" index="2" disallow="pedestrian tram rail_urban rail rail_electric rail_fast ship" speed="13.89" length="35.96" width="3.50" shape="885.46,412.56 892.54,419.94 896.63,425.84 898.89,432.65 900.51,442.74"/>
        <lane id=":1012_6_3" index="3" disallow="pedestrian tram rail_urban rail rail_electric rail_fast ship" speed="13.89" length="35.96" width="3.50" shape="882.99,415.05 889.60,421.93 893.41,427.44 895.53,433.79 897.04,443.21"/>
    </edge>
    <edge id=":106_0" function="internal">
        <lane id=":106_0_0" index="0" disallow="pedestrian tram rail_urban rail rail_electric rail_fast ship" speed="7.25" length="11.20" width="3.50" shape="705.01,741.57,0.02 704.50,738.66,0.02 703.11,736.58,0.02 700.85,735.34,0.03 697.71,734.93,0.03"/>
    </edge>
    <edge id=":106_1" function="internal">
        <lane id=":106_1_0" index="0" disallow="pedestrian tram rail_urban rail rail_electric rail_fast ship" speed="13.89" length="18.96" width="3.50" shape="705.01,741.57,0.02 704.57,722.62,0.02"/>
    </edge>
    <edge id=":106_2" function="internal">
        <lane id=":106_2_0" index="0" disallow="pedestrian tram rail_urban rail rail_electric rail_fast ship" speed="8.34" length="6.61" width="3.50" shape="705.01,741.57,0.02 705.51,737.26,0.01 706.61,735.27,0.01"/>
    </edge>
    <edge id=":106_12" function="internal">
        <lane id=":106_12_0" index="0" disallow="pedestrian tram rail_urban rail rail_electric rail_fast ship" speed="8.34" length="8.96" width="3.50" shape="706.61,735.27,0.01 707.23,734.17,0.01 710.17,732.30,0.01 714.33,731.64"/>
    </edge>
    <edge id=":106_3" function="internal">
        <lane id=":106_3_0" index="0" disallow="pedestrian tram rail_urban rail rail_electric rail_fast ship" speed="6.78" length="9.88" width="3.50" shape="714.37,735.14 711.75,735.56,0.01 709.90,736.76,0.01 708.82,738.74,0.01 708.51,741.49,0.02"/>
    </edge>
    <edge id=":106_4" function="internal">
        <lane id=":106_4_0" index="0" disallow="pedestrian tram rail_urban rail rail_electric rail_fast ship" speed="13.89" length="16.66" width="3.50" shape="714.37,735.14 697.71,734.93,0.03"/>
    </edge>
    <edge id=":106_5" function="internal">
        <lane id=":106_5_0" index="0" disallow="pedestrian tram rail_urban rail rail_electric rail_fast ship" speed="9.00" length="17.99" width="3.50" shape="714.37,735.14 710.18,734.39,0.00 707.15,732.06,0.01 705.28,728.13,0.01 704.57,722.62,0.02"/>
    </edge>
    <edge id=":106_6" function="internal">
        <lane id=":106_6_0" index="0" disallow="pedestrian tram rail_urban rail rail_electric rail_fast ship" speed="7.58" length="12.42" width="3.50" shape="708.07,722.54,0.02 708.53,726.55,0.01 709.73,729.40,0.01 711.66,731.10,0.00 714.33,731.64"/>
    </edge>
    <edge id=":106_7" function="internal">
        <lane id=":106_7_0" index="0" disallow="pedestrian tram rail_urban rail rail_electric rail_fast ship" speed="13.89" length="18.95" width="3.50" shape="708.07,722.54,0.02 708.51,741.49,0.02"/>
    </edge>
    <edge id=":106_8" function="internal">
        <lane id=":106_8_0" index="0" disallow="pedestrian tram rail_urban rail rail_electric rail_fast ship" speed="9.02" length="7.75" width="3.50" shape="708.07,722.54,0.02 707.52,727.95,0.02 706.49,730.03,0.02"/>
    </edge>
    <edge id=":106_13" function="internal">
        <lane id=":106_13_0" index="0" disallow="pedestrian tram rail_urban rail rail_electric rail_fast ship" speed="9.02" length="10.70" width="3.50" shape="706.49,730.03,0.02 705.61,731.82,0.03 702.34,734.15,0.03 697.71,734.93,0.03"/>
    </edge>
    <edge id=":106_9" function="internal">
        <lane id=":106_9_0" index="0" disallow="pedestrian tram rail_urban rail rail_electric rail_fast ship" speed="7.59" length="12.74" width="3.50" shape="697.71,731.43,0.03 700.78,730.87,0.03 702.94,729.22,0.03 704.21,726.47,0.02 704.57,722.62,0.02"/>
    </edge>
    <edge id=":106_10" function="internal">
        <lane id=":106_10_0" index="0" disallow="pedestrian tram rail_urban rail rail_electric rail_fast ship" speed="13.89" length="16.63" width="3.50" shape="697.71,731.43,0.03 714.33,731.64"/>
    </edge>
    <edge id=":106_11" function="internal">
        <lane id=":106_11_0" index="0" disallow="pedestrian tram rail_urban rail rail_electric rail_fast ship" speed="8.74" length="16.76" width="3.50" shape="697.71,731.43,0.03 702.35,732.05,0.03 705.69,733.93,0.02 707.75,737.08,0.02 708.51,741.49,0.02"/>
    </edge>
    <edge id=":167_0" function="internal">
        <lane id=":167_0_0" index="0" disallow="pedestrian tram rail_urban rail rail_electric rail_fast ship" speed="6.98" length="10.42" width="3.50" shape="851.49,601.71 851.02,599.18,0.05 849.67,597.38,0.09 847.44,596.31,0.14 844.33,595.97,0.20"/>
    </edge>
    <edge id=":167_1" function="internal">
        <lane id=":167_1_0" index="0" disallow="pedestrian tram rail_urban rail rail_electric rail_fast ship" speed="13.89" length="15.05" width="3.50" shape="851.49,601.71 851.29,586.66"/>
    </edge>
    <edge id=":167_2" function="internal">
        <lane id=":167_2_0" index="0" disallow="pedestrian tram rail_urban rail rail_electric rail_fast ship" speed="8.21" length="14.94" width="3.50" shape="851.49,601.71 852.03,597.65,0.05 853.74,594.74,0.10 856.62,592.98,0.15 860.67,592.38,0.20"/>
    </edge>
    <edge id=":167_3" function="internal">
        <lane id=":167_3_0" index="0" disallow="pedestrian tram rail_urban rail rail_electric rail_fast ship" speed="6.61" length="9.28" width="3.50" shape="860.69,595.88,0.20 858.18,596.26,0.15 856.39,597.35,0.10 855.33,599.15,0.05 854.99,601.67"/>
    </edge>
    <edge id=":167_4" function="internal">
        <lane id=":167_4_0" index="0" disallow="pedestrian tram rail_urban rail rail_electric rail_fast ship" speed="13.89" length="16.36" width="3.50" shape="860.69,595.88,0.20 844.33,595.97,0.20"/>
    </edge>
    <edge id=":167_5" function="internal">
        <lane id=":167_5_0" index="0" disallow="pedestrian tram rail_urban rail rail_electric rail_fast ship" speed="8.26" length="6.40" width="3.50" shape="860.69,595.88,0.20 856.62,595.33,0.15 854.65,594.16,0.11"/>
    </edge>
    <edge id=":167_12" function="internal">
        <lane id=":167_12_0" index="0" disallow="pedestrian tram rail_urban rail rail_electric rail_fast ship" speed="8.26" length="8.60" width="3.50" shape="854.65,594.16,0.11 853.70,593.60,0.10 851.92,590.72,0.05 851.29,586.66"/>
    </edge>
    <edge id=":167_6" function="internal">
        <lane id=":167_6_0" index="0" disallow="pedestrian tram rail_urban rail rail_electric rail_fast ship" speed="6.67" length="9.38" width="3.50" shape="854.78,586.62 855.18,589.15,0.05 856.29,590.96,0.10 858.12,592.03,0.15 860.67,592.38,0.20"/>
    </edge>
    <edge id=":167_7" function="internal">
        <lane id=":167_7_0" index="0" disallow="pedestrian tram rail_urban rail rail_electric rail_fast ship" speed="13.89" length="15.06" width="3.50" shape="854.78,586.62 854.99,601.67"/>
    </edge>
    <edge id=":167_8" function="internal">
        <lane id=":167_8_0" index="0" disallow="pedestrian tram rail_urban rail rail_electric rail_fast ship" speed="8.47" length="16.00" width="3.50" shape="854.78,586.62 854.18,590.68,0.05 852.23,593.60,0.10 848.95,595.36,0.14 844.33,595.97,0.20"/>
    </edge>
    <edge id=":167_9" function="internal">
        <lane id=":167_9_0" index="0" disallow="pedestrian tram rail_urban rail rail_electric rail_fast ship" speed="6.93" length="10.34" width="3.50" shape="844.31,592.47,0.20 847.39,592.09,0.14 849.58,590.99,0.09 850.88,589.19,0.05 851.29,586.66"/>
    </edge>
    <edge id=":167_10" function="internal">
        <lane id=":167_10_0" index="0" disallow="pedestrian tram rail_urban rail rail_electric rail_fast ship" speed="13.89" length="16.36" width="3.50" shape="844.31,592.47,0.20 860.67,592.38,0.20"/>
    </edge>
    <edge id=":167_11" function="internal">
        <lane id=":167_11_0" index="0" disallow="pedestrian tram rail_urban rail rail_electric rail_fast ship" speed="8.51" length="7.21" width="3.50" shape="844.31,592.47,0.20 848.95,593.02,0.14 851.20,594.18,0.11"/>
    </edge>
    <edge id=":167_13" function="internal">
        <lane id=":167_13_0" index="0" disallow="pedestrian tram rail_urban rail rail_electric rail_fast ship" speed="8.51" length="8.84" width="3.50" shape="851.20,594.18,0.11 852.27,594.74,0.10 854.29,597.62,0.05 854.99,601.67"/>
    </edge>
    <edge id=":252_0" function="internal">
        <lane id=":252_0_0" index="0" disallow="pedestrian tram rail_urban rail rail_electric rail_fast ship" speed="13.89" length="15.34" width="3.50" shape="715.80,812.48 700.43,812.59"/>
        <lane id=":252_0_1" index="1" disallow="pedestrian tram rail_urban rail rail_electric rail_fast ship" speed="13.89" length="15.34" width="3.50" shape="715.76,808.98 700.41,809.09"/>
        <lane id=":252_0_2" index="2" disallow="pedestrian tram rail_urban rail rail_electric rail_fast ship" speed="13.89" length="15.34" width="3.50" shape="715.72,805.48 700.39,805.59"/>
        <lane id=":252_0_3" index="3" disallow="pedestrian tram rail_urban rail rail_electric rail_fast ship" speed="13.89" length="15.34" width="3.50" shape="715.68,801.98 700.37,802.09"/>
    </edge>
    <edge id=":252_4" function="internal">
        <lane id=":252_4_0" index="0" disallow="pedestrian tram rail_urban rail rail_electric rail_fast ship" speed="6.73" length="9.54" width="3.50" shape="709.44,782.20,0.02 709.87,784.75,0.01 711.03,786.57,0.01 712.91,787.64,0.01 715.52,787.98"/>
    </edge>
    <edge id=":252_5" function="internal">
        <lane id=":252_5_0" index="0" disallow="pedestrian tram rail_urban rail rail_electric rail_fast ship" speed="6.58" length="9.28" width="3.50" shape="700.29,788.09 702.82,787.72,0.01 704.60,786.62,0.01 705.64,784.81,0.01 705.94,782.28,0.02"/>
    </edge>
    <edge id=":252_6" function="internal">
        <lane id=":252_6_0" index="0" disallow="pedestrian tram rail_urban rail rail_electric rail_fast ship" speed="13.89" length="15.27" width="3.50" shape="700.31,791.59 715.56,791.48"/>
        <lane id=":252_6_1" index="1" disallow="pedestrian tram rail_urban rail rail_electric rail_fast ship" speed="13.89" length="15.27" width="3.50" shape="700.33,795.09 715.60,794.98"/>
        <lane id=":252_6_2" index="2" disallow="pedestrian tram rail_urban rail rail_electric rail_fast ship" speed="13.89" length="15.27" width="3.50" shape="700.35,798.59 715.64,798.48"/>
    </edge>
    <edge id=":281_0" function="internal">
        <lane id=":281_0_0" index="0" disallow="pedestrian tram rail_urban rail rail_electric rail_fast ship" speed="13.89" length="15.00" width="3.50" shape="767.67,734.59 752.67,734.74"/>
    </edge>
    <edge id=":281_1" function="internal">
        <lane id=":281_1_0" index="0" disallow="pedestrian tram rail_urban rail rail_electric rail_fast ship" speed="8.20" length="6.36" width="3.50" shape="767.67,734.59 763.61,734.05,0.01 761.66,732.90,0.01"/>
    </edge>
    <edge id=":281_6" function="internal">
        <lane id=":281_6_0" index="0" disallow="pedestrian tram rail_urban rail rail_electric rail_fast ship" speed="8.20" length="8.58" width="3.50" shape="761.66,732.90,0.01 760.70,732.34,0.01 758.95,729.45,0.01 758.36,725.39,0.02"/>
    </edge>
    <edge id=":281_2" function="internal">
        <lane id=":281_2_0" index="0" disallow="pedestrian tram rail_urban rail rail_electric rail_fast ship" speed="6.60" length="9.28" width="3.50" shape="761.86,725.38,0.02 762.23,727.90,0.01 763.31,729.69,0.01 765.12,730.75,0.01 767.64,731.09"/>
    </edge>
    <edge id=":281_3" function="internal">
        <lane id=":281_3_0" index="0" disallow="pedestrian tram rail_urban rail rail_electric rail_fast ship" speed="8.24" length="14.93" width="3.50" shape="761.86,725.38,0.02 761.29,729.44,0.01 759.58,732.35,0.01 756.70,734.12,0.01 752.67,734.74"/>
    </edge>
    <edge id=":281_4" function="internal">
        <lane id=":281_4_0" index="0" disallow="pedestrian tram rail_urban rail rail_electric rail_fast ship" speed="6.64" length="9.31" width="3.50" shape="752.64,731.24 755.15,730.85,0.01 756.94,729.75,0.01 758.01,727.93,0.01 758.36,725.39,0.02"/>
    </edge>
    <edge id=":281_5" function="internal">
        <lane id=":281_5_0" index="0" disallow="pedestrian tram rail_urban rail rail_electric rail_fast ship" speed="13.89" length="15.00" width="3.50" shape="752.64,731.24 767.64,731.09"/>
    </edge>
    <edge id=":317_0" function="internal">
        <lane id=":317_0_0" index="0" disallow="pedestrian tram rail_urban rail rail_electric rail_fast ship" speed="7.17" length="10.97" width="3.50" shape="814.78,680.06 814.30,677.33 812.91,675.38 810.61,674.21 807.41,673.80"/>
    </edge>
    <edge id=":317_1" function="internal">
        <lane id=":317_1_0" index="0" disallow="pedestrian tram rail_urban rail rail_electric rail_fast ship" speed="13.89" length="17.59" width="3.50" shape="814.78,680.06 814.63,662.47"/>
    </edge>
    <edge id=":317_2" function="internal">
        <lane id=":317_2_0" index="0" disallow="pedestrian tram rail_urban rail rail_electric rail_fast ship" speed="8.58" length="16.58" width="3.50" shape="814.78,680.06 815.42,675.82 817.45,672.81 820.85,671.01 825.63,670.43"/>
    </edge>
    <edge id=":317_3" function="internal">
        <lane id=":317_3_0" index="0" disallow="pedestrian tram rail_urban rail rail_electric rail_fast ship" speed="7.07" length="10.88" width="3.50" shape="825.61,673.93 822.38,674.30 820.08,675.43 818.72,677.34 818.28,680.02"/>
    </edge>
    <edge id=":317_4" function="internal">
        <lane id=":317_4_0" index="0" disallow="pedestrian tram rail_urban rail rail_electric rail_fast ship" speed="13.89" length="18.20" width="3.50" shape="825.61,673.93 807.41,673.80"/>
    </edge>
    <edge id=":317_5" function="internal">
        <lane id=":317_5_0" index="0" disallow="pedestrian tram rail_urban rail rail_electric rail_fast ship" speed="9.03" length="6.80" width="3.50" shape="825.61,673.93 820.85,673.19 819.17,672.13"/>
    </edge>
    <edge id=":317_12" function="internal">
        <lane id=":317_12_0" index="0" disallow="pedestrian tram rail_urban rail rail_electric rail_fast ship" speed="9.03" length="11.24" width="3.50" shape="819.17,672.13 817.43,671.04 815.36,667.46 814.63,662.47"/>
    </edge>
    <edge id=":317_6" function="internal">
        <lane id=":317_6_0" index="0" disallow="pedestrian tram rail_urban rail rail_electric rail_fast ship" speed="7.60" length="12.46" width="3.50" shape="818.13,662.43 818.63,665.92 820.04,668.41 822.38,669.92 825.63,670.43"/>
    </edge>
    <edge id=":317_7" function="internal">
        <lane id=":317_7_0" index="0" disallow="pedestrian tram rail_urban rail rail_electric rail_fast ship" speed="13.89" length="17.59" width="3.50" shape="818.13,662.43 818.28,680.02"/>
    </edge>
    <edge id=":317_8" function="internal">
        <lane id=":317_8_0" index="0" disallow="pedestrian tram rail_urban rail rail_electric rail_fast ship" speed="8.89" length="17.87" width="3.50" shape="818.13,662.43 817.50,667.43 815.50,670.99 812.14,673.11 807.41,673.80"/>
    </edge>
    <edge id=":317_9" function="internal">
        <lane id=":317_9_0" index="0" disallow="pedestrian tram rail_urban rail rail_electric rail_fast ship" speed="7.44" length="12.17" width="3.50" shape="807.43,670.30 810.61,669.82 812.87,668.36 814.21,665.91 814.63,662.47"/>
    </edge>
    <edge id=":317_10" function="internal">
        <lane id=":317_10_0" index="0" disallow="pedestrian tram rail_urban rail rail_electric rail_fast ship" speed="13.89" length="18.20" width="3.50" shape="807.43,670.30 825.63,670.43"/>
    </edge>
    <edge id=":317_11" function="internal">
        <lane id=":317_11_0" index="0" disallow="pedestrian tram rail_urban rail rail_electric rail_fast ship" speed="8.67" length="7.21" width="3.50" shape="807.43,670.30 812.14,670.93 814.30,672.10"/>
    </edge>
    <edge id=":317_13" function="internal">
        <lane id=":317_13_0" index="0" disallow="pedestrian tram rail_urban rail rail_electric rail_fast ship" speed="8.67" length="9.34" width="3.50" shape="814.30,672.10 815.52,672.76 817.57,675.79 818.28,680.02"/>
    </edge>
    <edge id=":32.20_0" function="internal">
        <lane id=":32.20_0_0" index="0" disallow="pedestrian tram rail_urban rail rail_electric rail_fast ship" speed="13.89" length="0.31" width="3.50" shape="837.25,544.86,0.02 836.94,544.86,0.02"/>
    </edge>
    <edge id=":32.20_1" function="internal">
        <lane id=":32.20_1_0" index="0" disallow="pedestrian tram rail_urban rail rail_electric rail_fast ship" speed="13.89" length="0.29" width="3.50" shape="836.88,541.36,0.02 837.18,541.36,0.02"/>
    </edge>
    <edge id=":32.24_0" function="internal">
        <lane id=":32.24_0_0" index="0" disallow="pedestrian tram rail_urban rail rail_electric rail_fast ship" speed="13.89" length="0.30" width="3.50" shape="851.02,566.76 851.02,566.47"/>
    </edge>
    <edge id=":32.24_1" function="internal">
        <lane id=":32.24_1_0" index="0" disallow="pedestrian tram rail_urban rail rail_electric rail_fast ship" speed="13.89" length="0.30" width="3.50" shape="854.52,566.41 854.52,566.72"/>
    </edge>
    <edge id=":386_0" function="internal">
        <lane id=":386_0_0" index="0" disallow="pedestrian tram rail_urban rail rail_electric rail_fast ship" speed="13.89" length="15.74" width="3.50" shape="814.58,657.18 814.44,641.44"/>
    </edge>
    <edge id=":386_1" function="internal">
        <lane id=":386_1_0" index="0" disallow="pedestrian tram rail_urban rail rail_electric rail_fast ship" speed="13.89" length="15.47" width="3.50" shape="821.93,642.28 820.43,645.81 819.19,649.53 818.36,653.35 818.08,657.14"/>
    </edge>
    <edge id=":386_2" function="internal">
        <lane id=":386_2_0" index="0" disallow="pedestrian tram rail_urban rail rail_electric rail_fast ship" speed="13.89" length="15.73" width="3.50" shape="817.94,641.41 818.08,657.14"/>
    </edge>
    <edge id=":394_0" function="internal">
        <lane id=":394_0_0" index="0" disallow="pedestrian tram rail_urban rail rail_electric rail_fast ship" speed="7.63" length="12.68" width="3.50" shape="814.11,604.09 813.59,600.61,0.06 812.11,598.14,0.10 809.67,596.67,0.15 806.27,596.19,0.20"/>
    </edge>
    <edge id=":394_1" function="internal">
        <lane id=":394_1_0" index="0" disallow="pedestrian tram rail_urban rail rail_electric rail_fast ship" speed="13.89" length="19.10" width="3.50" shape="814.11,604.09 813.94,584.99"/>
    </edge>
    <edge id=":394_2" function="internal">
        <lane id=":394_2_0" index="0" disallow="pedestrian tram rail_urban rail rail_electric rail_fast ship" speed="8.92" length="7.25" width="3.50" shape="814.11,604.09 814.74,599.07,0.06 815.80,597.14,0.08"/>
    </edge>
    <edge id=":394_12" function="internal">
        <lane id=":394_12_0" index="0" disallow="pedestrian tram rail_urban rail rail_electric rail_fast ship" speed="8.92" length="10.60" width="3.50" shape="815.80,597.14,0.08 816.71,595.49,0.10 820.04,593.32,0.15 824.72,592.58,0.20"/>
    </edge>
    <edge id=":394_3" function="internal">
        <lane id=":394_3_0" index="0" disallow="pedestrian tram rail_urban rail rail_electric rail_fast ship" speed="7.48" length="12.20" width="3.50" shape="824.74,596.08,0.20 821.59,596.59,0.15 819.36,598.09,0.10 818.03,600.58,0.06 817.61,604.05"/>
    </edge>
    <edge id=":394_4" function="internal">
        <lane id=":394_4_0" index="0" disallow="pedestrian tram rail_urban rail rail_electric rail_fast ship" speed="13.89" length="18.47" width="3.50" shape="824.74,596.08,0.20 806.27,596.19,0.20"/>
    </edge>
    <edge id=":394_5" function="internal">
        <lane id=":394_5_0" index="0" disallow="pedestrian tram rail_urban rail rail_electric rail_fast ship" speed="8.90" length="17.64" width="3.50" shape="824.74,596.08,0.20 820.05,595.41,0.15 816.69,593.34,0.10 814.65,589.86,0.06 813.94,584.99"/>
    </edge>
    <edge id=":394_6" function="internal">
        <lane id=":394_6_0" index="0" disallow="pedestrian tram rail_urban rail rail_electric rail_fast ship" speed="7.44" length="12.01" width="3.50" shape="817.44,584.95 817.92,588.31,0.06 819.29,590.69,0.10 821.56,592.12,0.15 824.72,592.58,0.20"/>
    </edge>
    <edge id=":394_7" function="internal">
        <lane id=":394_7_0" index="0" disallow="pedestrian tram rail_urban rail rail_electric rail_fast ship" speed="13.89" length="19.10" width="3.50" shape="817.44,584.95 817.61,604.05"/>
    </edge>
    <edge id=":394_8" function="internal">
        <lane id=":394_8_0" index="0" disallow="pedestrian tram rail_urban rail rail_electric rail_fast ship" speed="8.98" length="6.95" width="3.50" shape="817.44,584.95 816.78,589.85,0.05 815.75,591.58,0.08"/>
    </edge>
    <edge id=":394_13" function="internal">
        <lane id=":394_13_0" index="0" disallow="pedestrian tram rail_urban rail rail_electric rail_fast ship" speed="8.98" length="11.13" width="3.50" shape="815.75,591.58,0.08 814.70,593.35,0.10 811.19,595.46,0.14 806.27,596.19,0.20"/>
    </edge>
    <edge id=":394_9" function="internal">
        <lane id=":394_9_0" index="0" disallow="pedestrian tram rail_urban rail rail_electric rail_fast ship" speed="7.54" length="12.42" width="3.50" shape="806.25,592.69,0.20 809.64,592.19,0.14 812.05,590.74,0.10 813.49,588.34,0.05 813.94,584.99"/>
    </edge>
    <edge id=":394_10" function="internal">
        <lane id=":394_10_0" index="0" disallow="pedestrian tram rail_urban rail rail_electric rail_fast ship" speed="13.89" length="18.47" width="3.50" shape="806.25,592.69,0.20 824.72,592.58,0.20"/>
    </edge>
    <edge id=":394_11" function="internal">
        <lane id=":394_11_0" index="0" disallow="pedestrian tram rail_urban rail rail_electric rail_fast ship" speed="9.05" length="18.31" width="3.50" shape="806.25,592.69,0.20 811.18,593.38,0.15 814.72,595.50,0.10 816.86,599.06,0.06 817.61,604.05"/>
    </edge>
    <edge id=":43.35_0" function="internal">
        <lane id=":43.35_0_0" index="0" disallow="pedestrian tram rail_urban rail rail_electric rail_fast ship" speed="13.89" length="0.30" width="3.50" shape="751.73,812.49 751.43,812.49"/>
        <lane id=":43.35_0_1" index="1" disallow="pedestrian tram rail_urban rail rail_electric rail_fast ship" speed="13.89" length="0.30" width="3.50" shape="751.75,808.99 751.45,808.99"/>
        <lane id=":43.35_0_2" index="2" disallow="pedestrian tram rail_urban rail rail_electric rail_fast ship" speed="13.89" length="0.30" width="3.50" shape="751.77,805.49 751.47,805.49"/>
        <lane id=":43.35_0_3" index="3" disallow="pedestrian tram rail_urban rail rail_electric rail_fast ship" speed="13.89" length="0.30" width="3.50" shape="751.79,801.99 751.49,801.99"/>
    </edge>
    <edge id=":43.35_4" function="internal">
        <lane id=":43.35_4_0" index="0" disallow="pedestrian tram rail_urban rail rail_electric rail_fast ship" speed="13.89" length="0.30" width="3.50" shape="751.56,787.99 751.87,787.99"/>
        <lane id=":43.35_4_1" index="1" disallow="pedestrian tram rail_urban rail rail_electric rail_fast ship" speed="13.89" length="0.30" width="3.50" shape="751.55,791.49 751.85,791.49"/>
        <lane id=":43.35_4_2" index="2" disallow="pedestrian tram rail_urban rail rail_electric rail_fast ship" speed="13.89" length="0.30" width="3.50" shape="751.53,794.99 751.83,794.99"/>
        <lane id=":43.35_4_3" index="3" disallow="pedestrian tram rail_urban rail rail_electric rail_fast ship" speed="13.89" length="0.30" width="3.50" shape="751.51,798.49 751.81,798.49"/>
    </edge>
    <edge id=":431_0" function="internal">
        <lane id=":431_0_0" index="0" disallow="pedestrian tram rail_urban rail rail_electric rail_fast ship" speed="6.93" length="10.35" width="3.50" shape="813.64,551.64 813.21,548.84,0.01 811.98,546.86,0.01 809.96,545.69,0.01 807.13,545.34,0.02"/>
    </edge>
    <edge id=":431_1" function="internal">